<?xml version="1.0" encoding="UTF-8"?>
<!-- generated on 2024-05-29 23:43:15.658882 by randomTrips.py UNKNOWN
  options: -n map.net.xml -r bus_routes.rou.xml -o bus_trips.xml -e 3600 -p 30 <doubleminus>vehicle-class bus <doubleminus>trip-attributes=accel="0.8"
-->
<routes xmlns:xsi="http://www.w3.org/2001/XMLSchema-instance" xsi:noNamespaceSchemaLocation="http://sumo.dlr.de/xsd/routes_file.xsd">
    <vType id="bus" vClass="bus" accel="0.8"/>
    <trip id="0" depart="0.00" from="533411509#5" to="-155218481#8" type="bus"/>
    <trip id="1" depart="30.00" from="-792506140#1" to="-792503695#7" type="bus"/>
    <trip id="2" depart="60.00" from="792503682" to="787459184" type="bus"/>
    <trip id="3" depart="90.00" from="793425813#1" to="-211087313#1" type="bus"/>
    <trip id="4" depart="120.00" from="155218479#2" to="-155218485#0" type="bus"/>
    <trip id="5" depart="150.00" from="-792503685" to="211087336#1" type="bus"/>
    <trip id="6" depart="180.00" from="-155218483#0" to="-787494573#2" type="bus"/>
    <trip id="7" depart="210.00" from="533636531#4" to="211220455" type="bus"/>
    <trip id="8" depart="240.00" from="-792503690" to="253463713#2" type="bus"/>
    <trip id="9" depart="270.00" from="792564535" to="-141858113#0" type="bus"/>
    <trip id="10" depart="300.00" from="792562056" to="787927687" type="bus"/>
    <trip id="11" depart="330.00" from="-793489387#2" to="-252503741#1" type="bus"/>
    <trip id="12" depart="360.00" from="849299455#1" to="-793489417#0" type="bus"/>
    <trip id="13" depart="390.00" from="-211087321" to="-211087336#2" type="bus"/>
    <trip id="14" depart="420.00" from="792837621#1" to="260652987#1" type="bus"/>
    <trip id="15" depart="450.00" from="792564531" to="792501000#8" type="bus"/>
    <trip id="16" depart="480.00" from="211089612#5" to="854190129#3" type="bus"/>
    <trip id="17" depart="510.00" from="-793501009" to="252195416#3" type="bus"/>
    <trip id="18" depart="540.00" from="792598570" to="40438069#6" type="bus"/>
    <trip id="19" depart="570.00" from="792837640#6" to="252505526#3" type="bus"/>
    <trip id="20" depart="600.00" from="788112297" to="-155218504" type="bus"/>
    <trip id="21" depart="630.00" from="-792503695#4" to="-792564552#1" type="bus"/>
    <trip id="22" depart="660.00" from="-155218582#0" to="-792505151" type="bus"/>
    <trip id="23" depart="690.00" from="-211087339#0" to="-792508508#0" type="bus"/>
    <trip id="24" depart="720.00" from="497233764#0" to="-793496952" type="bus"/>
    <trip id="25" depart="750.00" from="-793496712#2" to="-792503679#1" type="bus"/>
    <trip id="26" depart="780.00" from="-792505182#1" to="793496951#1" type="bus"/>
    <trip id="27" depart="810.00" from="533636531#10" to="353363453#1" type="bus"/>
    <trip id="28" depart="840.00" from="-253466586#5" to="792501000#7" type="bus"/>
    <trip id="29" depart="870.00" from="-252505526#0" to="-854190129#7" type="bus"/>
    <trip id="30" depart="900.00" from="858892584#1" to="533636531#0" type="bus"/>
    <trip id="31" depart="930.00" from="213095619#1" to="787487394#1" type="bus"/>
    <trip id="32" depart="960.00" from="792837613" to="792505175" type="bus"/>
    <trip id="33" depart="990.00" from="-792503695#6" to="-155218485#5" type="bus"/>
    <trip id="34" depart="1020.00" from="-792837617#0" to="-792506137#1" type="bus"/>
    <trip id="35" depart="1050.00" from="-788940254#0" to="798289631" type="bus"/>
    <trip id="36" depart="1080.00" from="792926209#0" to="-792839463#1" type="bus"/>
    <trip id="37" depart="1110.00" from="533641889#1" to="141873697#5" type="bus"/>
    <trip id="38" depart="1140.00" from="793489429#2" to="155218542" type="bus"/>
    <trip id="39" depart="1170.00" from="-792505179#2" to="-792505170#0" type="bus"/>
    <trip id="40" depart="1200.00" from="252195420#11" to="-792505182#5" type="bus"/>
    <trip id="41" depart="1230.00" from="252505526#3" to="793489388#1" type="bus"/>
    <trip id="42" depart="1260.00" from="1161313111#0" to="-792503694#3" type="bus"/>
    <trip id="43" depart="1290.00" from="894895647" to="211087345#3" type="bus"/>
    <trip id="44" depart="1320.00" from="-211087316#1" to="-155218513" type="bus"/>
    <trip id="45" depart="1350.00" from="-211088404" to="496011582#2" type="bus"/>
    <trip id="46" depart="1380.00" from="792506134#2" to="155218481#6" type="bus"/>
    <trip id="47" depart="1410.00" from="-155218548" to="-896487587" type="bus"/>
    <trip id="48" depart="1440.00" from="888600577#1" to="211089612#3" type="bus"/>
    <trip id="49" depart="1470.00" from="849473939" to="792837640#3" type="bus"/>
    <trip id="50" depart="1500.00" from="-155214089#0" to="788969087" type="bus"/>
    <trip id="51" depart="1530.00" from="742092173#2" to="211089620#1" type="bus"/>
    <trip id="52" depart="1560.00" from="-792505182#1" to="533636531#11" type="bus"/>
    <trip id="53" depart="1590.00" from="-211088409#1" to="155218487#14" type="bus"/>
    <trip id="54" depart="1620.00" from="155218504" to="849299449" type="bus"/>
    <trip id="55" depart="1650.00" from="792839471#1" to="-792505182#6" type="bus"/>
    <trip id="56" depart="1680.00" from="211087301" to="-40438069#5" type="bus"/>
    <trip id="57" depart="1710.00" from="793489427#3" to="792839463#0" type="bus"/>
    <trip id="58" depart="1740.00" from="-792597364" to="533636526#0" type="bus"/>
    <trip id="59" depart="1770.00" from="259352271#2" to="-252195430#1" type="bus"/>
    <trip id="60" depart="1800.00" from="792505156#0" to="211089624#2" type="bus"/>
    <trip id="61" depart="1830.00" from="792505174#2" to="211089612#6" type="bus"/>
    <trip id="62" depart="1860.00" from="-1091961253#1" to="-792950036#2" type="bus"/>
    <trip id="63" depart="1890.00" from="-155218480#2" to="793496710#3" type="bus"/>
    <trip id="64" depart="1920.00" from="792947591#2" to="792837603#0" type="bus"/>
    <trip id="65" depart="1950.00" from="-792837605#1" to="-155218541#2" type="bus"/>
    <trip id="66" depart="1980.00" from="792947591#0" to="798369034#0" type="bus"/>
    <trip id="67" depart="2010.00" from="-211087303" to="211087287#7" type="bus"/>
    <trip id="68" depart="2040.00" from="-155218569#0" to="792505157#0" type="bus"/>
    <trip id="69" depart="2070.00" from="792505160#2" to="-211089621#2" type="bus"/>
    <trip id="70" depart="2100.00" from="155218561#3" to="252195415#0" type="bus"/>
    <trip id="71" depart="2130.00" from="-792505179#2" to="792839469#0" type="bus"/>
    <trip id="72" depart="2160.00" from="155218479#5" to="-792503683#2" type="bus"/>
    <trip id="73" depart="2190.00" from="211089617#0" to="792501000#9" type="bus"/>
    <trip id="74" depart="2220.00" from="-787494573#2" to="-792839454" type="bus"/>
    <trip id="75" depart="2250.00" from="882485906#1" to="533647589#2" type="bus"/>
    <trip id="76" depart="2280.00" from="155218485#1" to="211088409#0" type="bus"/>
    <trip id="77" depart="2310.00" from="-211088426#0" to="-792503696#0" type="bus"/>
    <trip id="78" depart="2340.00" from="-793478319" to="253463635#2" type="bus"/>
    <trip id="79" depart="2370.00" from="-792503695#9" to="-792503695#1" type="bus"/>
    <trip id="80" depart="2400.00" from="-155218569#4" to="533411509#4" type="bus"/>
    <trip id="81" depart="2430.00" from="-792503695#6" to="793489418#1" type="bus"/>
    <trip id="82" depart="2460.00" from="792837640#1" to="-155218571#2" type="bus"/>
    <trip id="83" depart="2490.00" from="-792505149" to="614303166#1" type="bus"/>
    <trip id="84" depart="2520.00" from="-792503678" to="-211210264#1" type="bus"/>
    <trip id="85" depart="2550.00" from="793496951#1" to="252504072#0" type="bus"/>
    <trip id="86" depart="2580.00" from="155218559#0" to="792505182#3" type="bus"/>
    <trip id="87" depart="2610.00" from="792564532" to="-758670124#1" type="bus"/>
    <trip id="88" depart="2640.00" from="-211087333#2" to="155218485#7" type="bus"/>
    <trip id="89" depart="2670.00" from="155218479#6" to="155218569#1" type="bus"/>
    <trip id="90" depart="2700.00" from="792500998#6" to="742092172#0" type="bus"/>
    <trip id="91" depart="2730.00" from="854276891#1" to="-211087339#1" type="bus"/>
    <trip id="92" depart="2760.00" from="141873691#2" to="-793489418#3" type="bus"/>
    <trip id="93" depart="2790.00" from="792837640#6" to="-792505172#0" type="bus"/>
    <trip id="94" depart="2820.00" from="-614303166#1" to="155218529#0" type="bus"/>
    <trip id="95" depart="2850.00" from="155218479#2" to="-792508509" type="bus"/>
    <trip id="96" depart="2880.00" from="-792505163#2" to="793496707#1" type="bus"/>
    <trip id="97" depart="2910.00" from="155218487#11" to="792837640#4" type="bus"/>
    <trip id="98" depart="2940.00" from="211220446" to="-155218529#0" type="bus"/>
    <trip id="99" depart="2970.00" from="896480221" to="792837606#2" type="bus"/>
    <trip id="100" depart="3000.00" from="849473587#1" to="793496709#2" type="bus"/>
    <trip id="101" depart="3030.00" from="792837623#0" to="-253466586#1" type="bus"/>
    <trip id="102" depart="3060.00" from="155218579#3" to="-792503688" type="bus"/>
    <trip id="103" depart="3090.00" from="1214482945#1" to="-155218541#4" type="bus"/>
    <trip id="104" depart="3120.00" from="-793501010" to="854276892#0" type="bus"/>
    <trip id="105" depart="3150.00" from="-792505179#3" to="792505182#2" type="bus"/>
    <trip id="106" depart="3180.00" from="155218513" to="155218481#8" type="bus"/>
    <trip id="107" depart="3210.00" from="849299455#1" to="888600577#0" type="bus"/>
    <trip id="108" depart="3240.00" from="213095603#5" to="788955937" type="bus"/>
    <trip id="109" depart="3270.00" from="-252195426#8" to="-792837603#3" type="bus"/>
    <trip id="110" depart="3300.00" from="849473587#0" to="253462682#0" type="bus"/>
    <trip id="111" depart="3330.00" from="211089619#0" to="792503696#10" type="bus"/>
    <trip id="112" depart="3360.00" from="-155218532#5" to="253462741#1" type="bus"/>
    <trip id="113" depart="3390.00" from="211087313#0" to="792837627" type="bus"/>
    <trip id="114" depart="3420.00" from="-252195430#5" to="849465199#1" type="bus"/>
    <trip id="115" depart="3450.00" from="-155218582#1" to="-534501367#1" type="bus"/>
    <trip id="116" depart="3480.00" from="253463635#2" to="742092173#2" type="bus"/>
    <trip id="117" depart="3510.00" from="-792503696#4" to="-211089612#5" type="bus"/>
    <trip id="118" depart="3540.00" from="793425807#1" to="-792505170#0" type="bus"/>
    <trip id="119" depart="3570.00" from="253463635#1" to="40438069#8" type="bus"/>
</routes>
