<?xml version="1.0" encoding="UTF-8"?>

<!-- generated on 2024-05-29 23:38:30 by Eclipse SUMO polyconvert Version 1.20.0
<configuration xmlns:xsi="http://www.w3.org/2001/XMLSchema-instance" xsi:noNamespaceSchemaLocation="http://sumo.dlr.de/xsd/polyconvertConfiguration.xsd">

    <input>
        <net-file value="map.net.xml"/>
        <osm-files value="map.osm"/>
    </input>

    <output>
        <output-file value="map.poly.xml"/>
    </output>

</configuration>
-->

<additional xmlns:xsi="http://www.w3.org/2001/XMLSchema-instance" xsi:noNamespaceSchemaLocation="http://sumo.dlr.de/xsd/additional_file.xsd">
    <location netOffset="-715375.07,-4288786.66" convBoundary="-304.96,-614.55,12706.84,7635.53" origBoundary="35.474861,38.715187,35.625935,38.787060" projParameter="+proj=utm +zone=36 +ellps=WGS84 +datum=WGS84 +units=m +no_defs"/>

    <poly id="1054178206" type="school" color="237,199,199" fill="1" layer="-2.00" shape="3613.344595,1260.257533 3617.814711,1248.629006 3634.982930,1203.972453 3694.881188,1226.825726 3673.233772,1283.110420 3613.344595,1260.257533"/>
    <poly id="1054178207" type="leisure" color="207,245,201" fill="1" layer="-2.00" shape="3627.493895,1229.502026 3640.098520,1234.314209 3647.755853,1214.365175 3635.142199,1209.563841 3627.493895,1229.502026"/>
    <poly id="1054178207#1" type="sport" color="79,230,125" fill="1" layer="-2.00" shape="3627.493895,1229.502026 3640.098520,1234.314209 3647.755853,1214.365175 3635.142199,1209.563841 3627.493895,1229.502026"/>
    <poly id="1054178208" type="school" color="237,199,199" fill="1" layer="-2.00" shape="2902.419180,1430.586168 2927.111332,1343.027444 2964.354602,1352.591137 2941.443467,1437.055291 2934.838290,1439.661937 2902.419180,1430.586168"/>
    <poly id="1054178209" type="school" color="237,199,199" fill="1" layer="-2.00" shape="2921.373163,1285.822913 2909.369327,1338.686326 2918.365321,1340.899185 2943.156876,1347.366470 2964.354602,1352.591137 2978.110275,1298.676246 2925.907201,1285.458619 2921.373163,1285.822913"/>
    <poly id="1054178210" type="leisure" color="207,245,201" fill="1" layer="-2.00" shape="2918.365321,1340.899185 2921.958985,1327.246977 2946.741888,1333.714032 2943.156876,1347.366470 2918.365321,1340.899185"/>
    <poly id="1054178210#1" type="sport" color="79,230,125" fill="1" layer="-2.00" shape="2918.365321,1340.899185 2921.958985,1327.246977 2946.741888,1333.714032 2943.156876,1347.366470 2918.365321,1340.899185"/>
    <poly id="1054178211" type="school" color="237,199,199" fill="1" layer="-2.00" shape="2925.907201,1285.458619 2931.609368,1261.867713 2923.154159,1253.260779 2934.645351,1207.036578 2998.978105,1222.431008 2978.110275,1298.676246 2925.907201,1285.458619"/>
    <poly id="1054178212" type="school" color="237,199,199" fill="1" layer="-2.00" shape="2909.369327,1338.686326 2838.485094,1322.701867 2850.488467,1269.838367 2921.373163,1285.822913 2909.369327,1338.686326"/>
    <poly id="1054178213" type="school" color="237,199,199" fill="1" layer="-2.00" shape="2850.488467,1269.838367 2864.892839,1190.349944 2934.645351,1207.036578 2923.154159,1253.260779 2931.609368,1261.867713 2925.907201,1285.458619 2921.373163,1285.822913 2850.488467,1269.838367"/>
    <poly id="1054178214" type="school" color="237,199,199" fill="1" layer="-2.00" shape="2965.765008,1112.923306 3023.835884,1125.091513 3041.790383,1055.164172 2986.394933,1027.918958 2965.765008,1112.923306"/>
    <poly id="1058097738" type="commercial" color="209,209,204" fill="1" layer="-3.00" shape="2872.308531,1936.596940 2889.195062,1893.130982 3002.373454,1936.890600 2984.919531,1981.673657 2872.308531,1936.596940"/>
    <poly id="1076695143" type="amenity" color="237,199,199" fill="1" layer="-1.00" shape="1525.560229,1454.345119 1532.998181,1455.314339 1533.942231,1448.131536 1526.504273,1447.162315 1525.560229,1454.345119"/>
    <poly id="1076695143#1" type="building" color="255,230,230" fill="1" layer="-1.00" shape="1525.560229,1454.345119 1532.998181,1455.314339 1533.942231,1448.131536 1526.504273,1447.162315 1525.560229,1454.345119"/>
    <poly id="1099921955" type="leisure" color="207,245,201" fill="1" layer="-2.00" shape="3521.135956,642.217270 3536.649951,650.741359 3548.713820,628.758648 3533.445961,620.774463 3521.135956,642.217270"/>
    <poly id="1099921956" type="leisure" color="207,245,201" fill="1" layer="-2.00" shape="3506.336194,635.245675 3517.698991,641.589560 3530.247270,619.075892 3519.341116,613.211061 3506.336194,635.245675"/>
    <poly id="1099921956#1" type="sport" color="79,230,125" fill="1" layer="-2.00" shape="3506.336194,635.245675 3517.698991,641.589560 3530.247270,619.075892 3519.341116,613.211061 3506.336194,635.245675"/>
    <poly id="1099921957" type="leisure" color="207,245,201" fill="1" layer="-2.00" shape="3505.973783,635.135739 3493.277706,628.233150 3506.572565,606.095420 3518.995482,613.123801 3505.973783,635.135739"/>
    <poly id="1099921957#1" type="sport" color="79,230,125" fill="1" layer="-2.00" shape="3505.973783,635.135739 3493.277706,628.233150 3506.572565,606.095420 3518.995482,613.123801 3505.973783,635.135739"/>
    <poly id="1101410985" type="amenity" color="237,199,199" fill="1" layer="-1.00" shape="1586.483993,449.131873 1601.317241,455.256534 1603.269627,451.622201 1609.696698,453.641254 1614.491237,440.865498 1610.650244,439.094679 1619.745327,417.939236 1613.411309,415.378464 1604.679507,436.932570 1595.726230,433.745029 1591.417118,445.312245 1588.068897,443.976946 1586.483993,449.131873"/>
    <poly id="1101410985#1" type="building" color="255,230,230" fill="1" layer="-1.00" shape="1586.483993,449.131873 1601.317241,455.256534 1603.269627,451.622201 1609.696698,453.641254 1614.491237,440.865498 1610.650244,439.094679 1619.745327,417.939236 1613.411309,415.378464 1604.679507,436.932570 1595.726230,433.745029 1591.417118,445.312245 1588.068897,443.976946 1586.483993,449.131873"/>
    <poly id="1281129965" type="amenity" color="237,199,199" fill="1" layer="-1.00" shape="1182.253600,2016.275263 1185.123773,2017.253097 1189.799537,2005.273643 1186.709396,2004.067674 1182.253600,2016.275263"/>
    <poly id="1281129966" type="amenity" color="237,199,199" fill="1" layer="-1.00" shape="1265.702452,1673.338061 1270.423532,1675.354869 1278.555070,1655.005941 1272.665483,1653.090586 1265.702452,1673.338061"/>
    <poly id="205397634" type="parking" color="184,184,179" fill="1" layer="-1.00" shape="1489.800050,1636.693714 1534.548884,1655.574343 1536.992738,1651.453589 1543.533642,1651.176581 1551.095618,1639.298222 1560.349128,1642.271859 1563.714579,1629.879196 1501.373560,1605.631554 1489.800050,1636.693714"/>
    <poly id="205398157" type="building" color="255,230,230" fill="1" layer="-1.00" shape="1502.572505,1561.979784 1510.735956,1544.952958 1535.207069,1555.516746 1540.906824,1558.971012 1555.060445,1564.099775 1550.034162,1575.825145 1540.416015,1579.839095 1502.572505,1561.979784"/>
    <poly id="205398157#1" type="tourism" color="207,245,201" fill="1" layer="-2.00" shape="1502.572505,1561.979784 1510.735956,1544.952958 1535.207069,1555.516746 1540.906824,1558.971012 1555.060445,1564.099775 1550.034162,1575.825145 1540.416015,1579.839095 1502.572505,1561.979784"/>
    <poly id="205398158" type="building" color="255,230,230" fill="1" layer="-1.00" shape="1535.345825,1592.218597 1569.028792,1606.321447 1574.504362,1593.753091 1559.227786,1586.738765 1548.006825,1581.578901 1550.034162,1575.825145 1540.416015,1579.839095 1535.345825,1592.218597"/>
    <poly id="205398158#1" type="tourism" color="207,245,201" fill="1" layer="-2.00" shape="1535.345825,1592.218597 1569.028792,1606.321447 1574.504362,1593.753091 1559.227786,1586.738765 1548.006825,1581.578901 1550.034162,1575.825145 1540.416015,1579.839095 1535.345825,1592.218597"/>
    <poly id="223645324" type="amenity" color="237,199,199" fill="1" layer="-1.00" shape="1225.122551,1627.859850 1236.372860,1599.043323 1259.538996,1608.015713 1248.297304,1636.832448 1225.122551,1627.859850"/>
    <poly id="223645324#1" type="building" color="255,230,230" fill="1" layer="-1.00" shape="1225.122551,1627.859850 1236.372860,1599.043323 1259.538996,1608.015713 1248.297304,1636.832448 1225.122551,1627.859850"/>
    <poly id="232602799" type="amenity" color="237,199,199" fill="1" layer="-1.00" shape="2986.856615,1149.612044 2994.122834,1126.419536 3015.042369,1132.925107 3007.767398,1156.117360 2986.856615,1149.612044"/>
    <poly id="232602799#1" type="building" color="255,230,230" fill="1" layer="-1.00" shape="2986.856615,1149.612044 2994.122834,1126.419536 3015.042369,1132.925107 3007.767398,1156.117360 2986.856615,1149.612044"/>
    <poly id="232602800" type="amenity" color="237,199,199" fill="1" layer="-1.00" shape="2644.117390,867.805863 2651.236236,845.197752 2666.979896,850.116550 2659.861007,872.724649 2644.117390,867.805863"/>
    <poly id="232602800#1" type="building" color="255,230,230" fill="1" layer="-1.00" shape="2644.117390,867.805863 2651.236236,845.197752 2666.979896,850.116550 2659.861007,872.724649 2644.117390,867.805863"/>
    <poly id="232602979" type="tourism" color="207,245,201" fill="1" layer="-2.00" shape="1469.533062,1335.659278 1621.607953,1406.738174 1724.249175,1453.245668 1950.304160,1555.140606 2068.747800,1609.970726 2278.717220,1707.759372 2278.898763,1724.014229 2270.982749,1740.525106 2251.041484,1752.997123 2223.747496,1761.080591 2193.177773,1752.802447 2008.903049,1665.037209 1888.574119,1611.089451 1697.574585,1530.112408 1560.467779,1475.245543 1521.395928,1463.172828 1512.072949,1443.914265 1501.146351,1381.682832 1489.952799,1368.804349 1471.162314,1360.783643 1465.599300,1351.668520 1463.130680,1342.015753 1469.533062,1335.659278"/>
    <poly id="252195414" type="building" color="255,230,230" fill="1" layer="-1.00" shape="3123.125615,1402.157516 3136.660838,1405.395012 3131.269842,1427.772555 3117.734656,1424.535067 3123.125615,1402.157516"/>
    <poly id="252266406" type="school" color="237,199,199" fill="1" layer="-2.00" shape="2878.420791,1134.251649 2901.437660,1004.072661 2903.405640,1000.205786 2908.787759,997.476674 2914.519245,996.600961 2986.394933,1027.918958 2975.285430,1072.265345 2965.765008,1112.923306 2994.135558,1119.300108 2985.612711,1160.063187 2878.420791,1134.251649"/>
    <poly id="253024689" type="building" color="255,230,230" fill="1" layer="-1.00" shape="3138.169051,1429.350495 3144.016385,1406.196872 3158.428565,1409.813932 3152.590188,1432.956686 3138.169051,1429.350495"/>
    <poly id="253029397" type="commercial" color="209,209,204" fill="1" layer="-3.00" shape="1525.069235,296.711402 1799.024991,404.314817 1898.112620,156.342128 1700.675542,82.600345 1609.693880,123.814507 1525.069235,296.711402"/>
    <poly id="253592877" type="building" color="255,230,230" fill="1" layer="-1.00" shape="3088.258125,1466.388632 3104.239890,1469.870993 3109.214268,1447.137666 3093.232153,1443.666397 3088.258125,1466.388632"/>
    <poly id="253592909" type="building" color="255,230,230" fill="1" layer="-1.00" shape="3109.731207,1471.710137 3123.914193,1474.798803 3128.747406,1452.772475 3114.564382,1449.683802 3109.731207,1471.710137"/>
    <poly id="253592962" type="building" color="255,230,230" fill="1" layer="-1.00" shape="3131.657373,1476.055596 3146.661942,1479.322376 3151.635525,1456.622368 3136.630914,1453.355581 3131.657373,1476.055596"/>
    <poly id="253593162" type="building" color="255,230,230" fill="1" layer="-1.00" shape="3153.687851,1481.670218 3168.900128,1484.976069 3173.834121,1462.452700 3158.622106,1459.135742 3153.687851,1481.670218"/>
    <poly id="253593230" type="building" color="255,230,230" fill="1" layer="-1.00" shape="3175.334826,1479.077163 3190.426006,1482.357514 3194.673301,1462.980871 3179.582085,1459.700514 3175.334826,1479.077163"/>
    <poly id="253593500" type="building" color="255,230,230" fill="1" layer="-1.00" shape="3193.818272,1491.247727 3207.649959,1494.138069 3212.353762,1471.763893 3198.530730,1468.873783 3193.818272,1491.247727"/>
    <poly id="253593505" type="building" color="255,230,230" fill="1" layer="-1.00" shape="3214.792970,1496.022677 3228.633794,1499.213206 3234.041359,1475.925364 3220.200495,1472.734828 3214.792970,1496.022677"/>
    <poly id="253593548" type="leisure" color="207,245,201" fill="1" layer="-2.00" shape="3089.660231,1367.505427 3162.677596,1386.571978 3189.293467,1285.471356 3169.745303,1280.369164 3116.275504,1266.393501 3089.660231,1367.505427"/>
    <poly id="253593548#1" type="sport" color="79,230,125" fill="1" layer="-2.00" shape="3089.660231,1367.505427 3162.677596,1386.571978 3189.293467,1285.471356 3169.745303,1280.369164 3116.275504,1266.393501 3089.660231,1367.505427"/>
    <poly id="253595778" type="tourism" color="207,245,201" fill="1" layer="-2.00" shape="3272.303963,1413.876306 3389.614162,1441.726736 3432.704674,1232.361161 3321.873476,1192.470369 3272.303963,1413.876306"/>
    <poly id="253619835" type="building" color="255,230,230" fill="1" layer="-1.00" shape="3277.970220,1195.073315 3276.354878,1195.917501 3274.883980,1193.089133 3275.192834,1192.931012 3273.077083,1188.874222 3259.141154,1196.088603 3261.124217,1199.908489 3259.773957,1200.604461 3262.451899,1205.731895 3260.439550,1206.776212 3262.654745,1211.013449 3264.614015,1210.000996 3267.283562,1215.117094 3268.660206,1214.410741 3270.619009,1218.163319 3275.596649,1215.589948 3276.059391,1216.480146 3282.590298,1213.105315 3282.119168,1212.203779 3284.554914,1210.948959 3282.464033,1206.937279 3282.137488,1207.106020 3280.657901,1204.277412 3282.317321,1203.412224 3277.970220,1195.073315"/>
    <poly id="254322884" type="amenity" color="237,199,199" fill="1" layer="-1.00" shape="3706.605034,1281.308127 3734.665895,1289.733983 3744.180458,1258.273409 3716.119492,1249.847524 3706.605034,1281.308127"/>
    <poly id="254322884#1" type="building" color="255,230,230" fill="1" layer="-1.00" shape="3706.605034,1281.308127 3734.665895,1289.733983 3744.180458,1258.273409 3716.119492,1249.847524 3706.605034,1281.308127"/>
    <poly id="254396063" type="school" color="237,199,199" fill="1" layer="-2.00" shape="2864.892839,1190.349944 2934.645351,1207.036578 2998.978105,1222.431008 3012.497986,1166.343761 2878.420791,1134.251649 2864.892839,1190.349944"/>
    <poly id="254397976" type="amenity" color="237,199,199" fill="1" layer="-1.00" shape="2759.267660,1440.854282 2766.075300,1414.683399 2783.110893,1419.082581 2776.303198,1445.253452 2759.267660,1440.854282"/>
    <poly id="254397976#1" type="building" color="255,230,230" fill="1" layer="-1.00" shape="2759.267660,1440.854282 2766.075300,1414.683399 2783.110893,1419.082581 2776.303198,1445.253452 2759.267660,1440.854282"/>
    <poly id="254398236" type="building" color="255,230,230" fill="1" layer="-1.00" shape="2859.026518,1296.674550 2889.676153,1303.357909 2885.490557,1322.414244 2901.524532,1325.908711 2908.454648,1294.343133 2861.779925,1284.154427 2859.026518,1296.674550"/>
    <poly id="254398268" type="building" color="255,230,230" fill="1" layer="-1.00" shape="2921.983653,1311.130972 2957.294314,1318.842203 2961.300145,1300.636221 2925.989404,1292.924976 2921.983653,1311.130972"/>
    <poly id="254399337" type="building" color="255,230,230" fill="1" layer="-1.00" shape="2684.983544,704.327389 2687.731448,697.716134 2693.021698,685.010033 2759.525369,712.468646 2751.282106,732.280148 2730.840884,723.833597 2732.312530,720.297401 2718.994562,714.800762 2717.727882,717.842751 2684.983544,704.327389"/>
    <poly id="254854031" type="building" color="255,230,230" fill="1" layer="-1.00" shape="2993.594872,1306.021157 3016.830357,1312.445950 3020.836130,1298.049792 2997.609299,1291.625228 2993.594872,1306.021157"/>
    <poly id="254854032" type="building" color="255,230,230" fill="1" layer="-1.00" shape="3007.756347,1252.228515 3030.171114,1258.130977 3033.304898,1246.343312 3010.881405,1240.440604 3007.756347,1252.228515"/>
    <poly id="254854033" type="building" color="255,230,230" fill="1" layer="-1.00" shape="3079.057038,1217.898686 3093.897708,1221.449619 3099.554196,1197.957509 3084.713483,1194.406568 3079.057038,1217.898686"/>
    <poly id="254854034" type="building" color="255,230,230" fill="1" layer="-1.00" shape="3046.339256,1262.129242 3061.996916,1266.657781 3068.346526,1244.850785 3052.688824,1240.322235 3046.339256,1262.129242"/>
    <poly id="254854035" type="building" color="255,230,230" fill="1" layer="-1.00" shape="2998.955704,1285.997466 3022.994258,1292.644251 3027.617382,1276.043584 3003.587473,1269.397026 2998.955704,1285.997466"/>
    <poly id="254854036" type="building" color="255,230,230" fill="1" layer="-1.00" shape="3057.637825,1211.856821 3072.152583,1215.554264 3077.890022,1193.230634 3063.383918,1189.533421 3057.637825,1211.856821"/>
    <poly id="254854037" type="building" color="255,230,230" fill="1" layer="-1.00" shape="3013.209896,1234.850914 3035.271499,1241.576738 3039.513597,1227.764655 3017.451958,1221.038820 3013.209896,1234.850914"/>
    <poly id="254854038" type="building" color="255,230,230" fill="1" layer="-1.00" shape="3099.962848,1224.259731 3110.523480,1226.526880 3115.494144,1203.615737 3104.933482,1201.348582 3099.962848,1224.259731"/>
    <poly id="254854040" type="building" color="255,230,230" fill="1" layer="-1.00" shape="3066.684312,1268.630311 3081.185694,1272.494021 3087.136206,1250.331750 3072.634784,1246.468031 3066.684312,1268.630311"/>
    <poly id="254854043" type="building" color="255,230,230" fill="1" layer="-1.00" shape="3022.741629,1194.737562 3045.683386,1201.731932 3050.068721,1187.457278 3027.126925,1180.462897 3022.741629,1194.737562"/>
    <poly id="254854885" type="building" color="255,230,230" fill="1" layer="-1.00" shape="3098.360628,1117.552256 3113.215418,1124.080357 3122.566123,1102.933398 3107.710993,1096.416380 3098.360628,1117.552256"/>
    <poly id="254854886" type="building" color="255,230,230" fill="1" layer="-1.00" shape="3139.023129,1136.651820 3148.395105,1116.316305 3162.761491,1122.886621 3153.389483,1143.222121 3139.023129,1136.651820"/>
    <poly id="254854887" type="building" color="255,230,230" fill="1" layer="-1.00" shape="3179.546334,1154.481545 3188.501396,1132.857275 3204.287846,1139.355614 3195.333051,1160.968768 3179.546334,1154.481545"/>
    <poly id="254854888" type="building" color="255,230,230" fill="1" layer="-1.00" shape="3089.725365,1176.328224 3095.918468,1154.839058 3111.379113,1159.262304 3105.177276,1180.751221 3089.725365,1176.328224"/>
    <poly id="254854889" type="building" color="255,230,230" fill="1" layer="-1.00" shape="3042.357452,1125.455630 3067.362361,1130.829493 3070.291049,1117.325681 3045.286099,1111.951811 3042.357452,1125.455630"/>
    <poly id="254854890" type="building" color="255,230,230" fill="1" layer="-1.00" shape="3118.672973,1126.207353 3127.169151,1107.347248 3141.969340,1113.962762 3133.473131,1132.822852 3118.672973,1126.207353"/>
    <poly id="254854891" type="building" color="255,230,230" fill="1" layer="-1.00" shape="3053.300415,1086.236311 3076.817739,1091.291668 3079.029371,1081.089252 3055.512017,1076.033890 3053.300415,1086.236311"/>
    <poly id="254854892" type="building" color="255,230,230" fill="1" layer="-1.00" shape="3159.766874,1145.752063 3168.863903,1125.608947 3182.838579,1131.868644 3173.750213,1152.011984 3159.766874,1145.752063"/>
    <poly id="254854893" type="building" color="255,230,230" fill="1" layer="-1.00" shape="3037.278099,1143.776505 3060.249992,1148.727991 3063.098448,1135.610730 3040.126518,1130.659237 3037.278099,1143.776505"/>
    <poly id="254854894" type="building" color="255,230,230" fill="1" layer="-1.00" shape="3070.142860,1170.881032 3076.083780,1148.751812 3090.567996,1152.615052 3084.627037,1174.744263 3070.142860,1170.881032"/>
    <poly id="254854895" type="building" color="255,230,230" fill="1" layer="-1.00" shape="3110.730885,1183.180750 3117.387077,1160.671335 3132.162730,1165.009165 3125.506498,1187.518569 3110.730885,1183.180750"/>
    <poly id="254854896" type="building" color="255,230,230" fill="1" layer="-1.00" shape="3081.010090,1110.344746 3092.979623,1115.171909 3101.611747,1093.894122 3089.641880,1089.078046 3081.010090,1110.344746"/>
    <poly id="254854897" type="building" color="255,230,230" fill="1" layer="-1.00" shape="3047.832274,1105.723881 3069.853146,1110.460451 3072.711844,1097.287937 3050.691241,1092.540262 3047.832274,1105.723881"/>
    <poly id="254854898" type="building" color="255,230,230" fill="1" layer="-1.00" shape="3131.788062,1189.101737 3137.876341,1167.631931 3153.131648,1171.927440 3147.043330,1193.397237 3131.788062,1189.101737"/>
    <poly id="254854899" type="building" color="255,230,230" fill="1" layer="-1.00" shape="3176.104790,1192.662800 3180.342109,1177.451121 3205.382336,1184.381430 3201.136278,1199.592859 3176.104790,1192.662800"/>
    <poly id="254854900" type="building" color="255,230,230" fill="1" layer="-1.00" shape="3199.618749,1163.630098 3214.220805,1169.851558 3223.765898,1147.654847 3209.163806,1141.433371 3199.618749,1163.630098"/>
    <poly id="254854901" type="building" color="255,230,230" fill="1" layer="-1.00" shape="3030.866698,1163.715798 3056.727591,1169.279747 3059.736469,1155.389379 3033.875532,1149.825422 3030.866698,1163.715798"/>
    <poly id="254854902" type="building" color="255,230,230" fill="1" layer="-1.00" shape="3151.726320,1194.581075 3158.967538,1171.998899 3173.646763,1176.678487 3166.405505,1199.260651 3151.726320,1194.581075"/>
    <poly id="254859130" type="building" color="255,230,230" fill="1" layer="-1.00" shape="3018.172693,1213.483428 3038.664002,1219.732962 3042.609794,1206.890187 3022.118454,1200.640644 3018.172693,1213.483428"/>
    <poly id="254864752" type="building" color="255,230,230" fill="1" layer="-1.00" shape="3047.984691,1502.247745 3065.058556,1506.193205 3070.334636,1483.557007 3053.261028,1479.600438 3047.984691,1502.247745"/>
    <poly id="254864754" type="building" color="255,230,230" fill="1" layer="-1.00" shape="3095.510363,1513.394037 3111.238409,1517.558103 3117.309063,1494.821572 3101.580974,1490.657495 3095.510363,1513.394037"/>
    <poly id="254864756" type="building" color="255,230,230" fill="1" layer="-1.00" shape="3062.333926,1553.135627 3076.019139,1556.921415 3082.089536,1535.140086 3068.404287,1531.354289 3062.333926,1553.135627"/>
    <poly id="254864758" type="building" color="255,230,230" fill="1" layer="-1.00" shape="3071.883891,1507.924565 3088.228413,1511.816725 3093.670645,1489.151778 3077.334771,1485.259848 3071.883891,1507.924565"/>
    <poly id="254864760" type="building" color="255,230,230" fill="1" layer="-1.00" shape="3042.764389,1546.933494 3056.416066,1550.673896 3061.891904,1528.365292 3045.719430,1523.911436 3042.764389,1546.933494"/>
    <poly id="254868860" type="building" color="255,230,230" fill="1" layer="-1.00" shape="2787.001266,1596.972461 2809.757205,1602.139533 2813.188111,1587.116629 2790.432130,1581.949549 2787.001266,1596.972461"/>
    <poly id="254868861" type="building" color="255,230,230" fill="1" layer="-1.00" shape="2794.936194,1554.760276 2817.597541,1559.891445 2821.147406,1544.338657 2798.486016,1539.207480 2794.936194,1554.760276"/>
    <poly id="254868862" type="building" color="255,230,230" fill="1" layer="-1.00" shape="2803.492908,1511.132312 2806.844231,1496.473763 2829.548599,1501.628349 2826.197235,1516.286890 2803.492908,1511.132312"/>
    <poly id="254868863" type="building" color="255,230,230" fill="1" layer="-1.00" shape="2848.152523,1659.406863 2851.395479,1645.211861 2873.719029,1650.278406 2870.476033,1664.473401 2848.152523,1659.406863"/>
    <poly id="254868864" type="building" color="255,230,230" fill="1" layer="-1.00" shape="2856.807236,1619.191562 2860.208189,1604.312246 2882.808510,1609.441939 2879.407515,1624.321248 2856.807236,1619.191562"/>
    <poly id="254868865" type="building" color="255,230,230" fill="1" layer="-1.00" shape="2872.061741,1535.028082 2875.659755,1519.310023 2898.173992,1524.415166 2894.584628,1540.133456 2872.061741,1535.028082"/>
    <poly id="254868866" type="building" color="255,230,230" fill="1" layer="-1.00" shape="2867.581797,1561.962524 2889.819254,1567.004522 2886.665718,1580.790997 2864.428298,1575.749007 2867.581797,1561.962524"/>
    <poly id="254868867" type="building" color="255,230,230" fill="1" layer="-1.00" shape="2781.373805,1643.235456 2803.893919,1647.163143 2806.583890,1631.875553 2784.063733,1627.947860 2781.373805,1643.235456"/>
    <poly id="254868871" type="building" color="255,230,230" fill="1" layer="-1.00" shape="2770.530630,1685.545601 2774.218207,1669.407890 2797.535947,1674.701423 2793.848324,1690.839126 2770.530630,1685.545601"/>
    <poly id="254868872" type="building" color="255,230,230" fill="1" layer="-1.00" shape="2871.469051,1541.409620 2894.225115,1546.576928 2891.002185,1560.672503 2868.245857,1555.516301 2871.469051,1541.409620"/>
    <poly id="254868873" type="building" color="255,230,230" fill="1" layer="-1.00" shape="2784.390043,1618.271257 2811.155598,1623.470564 2813.675808,1610.566385 2786.909906,1605.378170 2784.390043,1618.271257"/>
    <poly id="254868874" type="building" color="255,230,230" fill="1" layer="-1.00" shape="2863.571468,1582.245478 2886.777330,1587.502866 2883.198221,1603.165904 2859.992708,1597.897426 2863.571468,1582.245478"/>
    <poly id="254868876" type="building" color="255,230,230" fill="1" layer="-1.00" shape="2791.423898,1575.923282 2794.695591,1561.629086 2816.647423,1566.618613 2813.375691,1580.912801 2791.423898,1575.923282"/>
    <poly id="254868878" type="building" color="255,230,230" fill="1" layer="-1.00" shape="2773.949762,1663.335950 2798.357067,1668.870406 2801.984936,1653.008748 2777.577887,1647.463184 2773.949762,1663.335950"/>
    <poly id="254868879" type="building" color="255,230,230" fill="1" layer="-1.00" shape="2799.233908,1532.874627 2822.430948,1538.142679 2826.039077,1522.369345 2802.841991,1517.101284 2799.233908,1532.874627"/>
    <poly id="254868880" type="building" color="255,230,230" fill="1" layer="-1.00" shape="2840.229039,1700.242025 2843.362340,1686.554948 2866.930879,1691.900001 2863.797233,1705.598169 2840.229039,1700.242025"/>
    <poly id="254868881" type="building" color="255,230,230" fill="1" layer="-1.00" shape="2843.934272,1680.295019 2847.215948,1665.956683 2870.231233,1671.175490 2866.949213,1685.524916 2843.934272,1680.295019"/>
    <poly id="254868882" type="building" color="255,230,230" fill="1" layer="-1.00" shape="2852.235383,1639.014821 2855.745042,1623.660872 2878.414550,1628.803562 2874.904847,1644.157503 2852.235383,1639.014821"/>
    <poly id="254911376" type="building" color="255,230,230" fill="1" layer="-1.00" shape="2750.481240,1374.847139 2758.898888,1351.830438 2768.305695,1355.242871 2764.616881,1379.988692 2750.481240,1374.847139"/>
    <poly id="254911377" type="building" color="255,230,230" fill="1" layer="-1.00" shape="2521.731780,1294.236852 2529.753889,1272.297629 2544.372413,1277.607498 2536.341573,1299.546469 2521.731780,1294.236852"/>
    <poly id="254911378" type="building" color="255,230,230" fill="1" layer="-1.00" shape="2541.833295,1301.696219 2549.883360,1279.691135 2564.940971,1285.168574 2556.899561,1307.173882 2541.833295,1301.696219"/>
    <poly id="254911379" type="building" color="255,230,230" fill="1" layer="-1.00" shape="2729.703377,1367.635249 2738.064243,1344.783582 2753.363213,1350.334657 2745.002306,1373.186309 2729.703377,1367.635249"/>
    <poly id="254911380" type="building" color="255,230,230" fill="1" layer="-1.00" shape="2667.565658,1345.194458 2675.794914,1322.694562 2690.990250,1328.220456 2682.761258,1350.709238 2667.565658,1345.194458"/>
    <poly id="254911381" type="building" color="255,230,230" fill="1" layer="-1.00" shape="2688.383312,1352.862667 2696.650136,1330.263853 2712.293549,1335.946468 2704.026685,1358.545267 2688.383312,1352.862667"/>
    <poly id="254911382" type="building" color="255,230,230" fill="1" layer="-1.00" shape="2604.552719,1323.885347 2612.687270,1301.660485 2627.934539,1307.198782 2619.799948,1329.423631 2604.552719,1323.885347"/>
    <poly id="254911383" type="building" color="255,230,230" fill="1" layer="-1.00" shape="2646.576882,1338.054764 2654.768571,1315.653787 2670.032872,1321.203743 2661.832449,1343.604468 2646.576882,1338.054764"/>
    <poly id="254911384" type="building" color="255,230,230" fill="1" layer="-1.00" shape="2583.763308,1316.451394 2591.869900,1294.292392 2606.927763,1299.758814 2598.821132,1321.917803 2583.763308,1316.451394"/>
    <poly id="254911385" type="building" color="255,230,230" fill="1" layer="-1.00" shape="2625.674222,1330.628700 2633.837342,1308.315780 2648.662560,1313.698158 2640.499401,1336.011064 2625.674222,1330.628700"/>
    <poly id="254911386" type="building" color="255,230,230" fill="1" layer="-1.00" shape="2709.522545,1359.906635 2717.431990,1338.286589 2731.257793,1343.308508 2723.339620,1364.928304 2709.522545,1359.906635"/>
    <poly id="254911387" type="building" color="255,230,230" fill="1" layer="-1.00" shape="2562.699498,1309.187697 2570.768828,1287.116514 2585.430770,1292.427651 2577.352404,1314.509682 2562.699498,1309.187697"/>
    <poly id="255404384" type="building" color="255,230,230" fill="1" layer="-1.00" shape="2985.464722,1114.741359 3002.265665,1118.201517 3005.725069,1101.524464 3003.311399,1101.025021 3003.913458,1098.109222 3009.822337,1099.326623 3016.257167,1068.391734 2999.932146,1065.022370 2994.790398,1089.739355 2996.910008,1090.175186 2996.338602,1092.925218 2990.265450,1091.669996 2985.464722,1114.741359"/>