<?xml version="1.0" encoding="UTF-8"?>

<!-- generated on 2024-05-29 23:43:19 by Eclipse SUMO duarouter Version 1.20.0
<configuration xmlns:xsi="http://www.w3.org/2001/XMLSchema-instance" xsi:noNamespaceSchemaLocation="http://sumo.dlr.de/xsd/duarouterConfiguration.xsd">

    <input>
        <net-file value="map.net.xml"/>
        <route-files value="passenger_trips.xml"/>
    </input>

    <output>
        <output-file value="passenger_routes.rou.xml"/>
    </output>

    <time>
        <begin value="0"/>
        <end value="3600"/>
    </time>

    <report>
        <no-warnings value="true"/>
        <ignore-errors value="true"/>
        <no-step-log value="true"/>
    </report>

</configuration>
-->

<routes xmlns:xsi="http://www.w3.org/2001/XMLSchema-instance" xsi:noNamespaceSchemaLocation="http://sumo.dlr.de/xsd/routes_file.xsd">
    <vType id="passenger" vClass="passenger" color="white"/>
    <vehicle id="pass0" type="passenger" depart="0.00">
        <route edges="533411509#5 792509133 787927686#1 787927686#2 253462682#0 253462682#1 253462682#2 253462682#3 253462682#4 792562059#1 155218487#0 155218487#1 155218551#0 -155218481#9 -155218481#8"/>
    </vehicle>
    <vehicle id="pass1" type="passenger" depart="1.00">
        <route edges="-792506140#1 -792506136#1 -792506136#0 792506137#1 792505179#2 792505179#3 792505179#4 -792503696#4 -792503696#3 -792503696#2 -792503696#1 -792503696#0 141873697#4 141873697#5 141873697#6 141873697#7 141873697#8 533641889#1 849299454 849299453#0 849299453#1 141873691#0 141873691#1 141873691#2 141873691#3 141873691#4 141873691#5 -792503695#10 -792503695#9 -792503695#8 -792503695#7"/>
    </vehicle>
    <vehicle id="pass2" type="passenger" depart="2.00">
        <route edges="792503682 792503683#2 792503680 -792503695#4 -792503692#1 -792503692#0 792503693 849299451#2 849299451#3 849299450 533411512#0 533411512#1 533411512#2 533411512#3 533411512#4 533647594#0 533647594#1 -211088385#5 -211088385#4 787459184"/>
    </vehicle>
    <vehicle id="pass3" type="passenger" depart="3.00">
        <route edges="793425813#1 793425813#2 793425813#3 793425813#4 793425813#0 793425812 849465196 472156746#0 793489414 788956336#1 472156747 742092172#0 742092172#1 742092172#2 788969088 252195420#1 252195420#2 252195420#3 252195420#4 252195420#5 252195420#6 252195420#7 252195420#8 252195420#9 252195420#10 252195420#11 252195420#12 252195420#13 854190360 854190359#0 854190359#1 854190359#2 787927688#0 854206966 253462741#0 253462741#1 253462741#2 253462741#3 534302051#3 211087293#0 211087293#1 211087293#2 211087293#3 211087293#4 211087293#5 211087313#0 211087313#1 -211087313#1"/>
    </vehicle>
    <vehicle id="pass4" type="passenger" depart="4.00">
        <route edges="155218479#2 155218479#3 155218479#4 155218479#5 155218481#4 155218481#5 155218481#6 155218481#7 155218481#8 155218481#9 155218551#1 -155218485#0"/>
    </vehicle>
    <vehicle id="pass5" type="passenger" depart="5.00">
        <route edges="-792503685 792503685 849299451#1 849299451#2 849299451#3 849299450 533411509#0 533411509#1 533411509#2 533411509#3 533411509#4 533411509#5 792509133 787927686#1 787927686#2 253462682#0 253462682#1 253462682#2 253462682#3 792564539 211087336#1"/>
    </vehicle>
    <vehicle id="pass6" type="passenger" depart="6.00">
        <route edges="-155218483#0 155218483#0 155218483#1 155218481#0 155218481#1 155218481#2 155218481#3 155218481#4 -155218544#0 -155218487#5 -155218487#4 -155218487#3 -155218487#2 -155218487#1 -155218487#0 252195420#5 252195420#6 252195420#7 252195420#8 252195420#9 252195420#10 252195420#11 252195420#12 252195420#13 854190360 854190359#0 854190359#1 854190359#2 787927688#0 787927688#1 854190362#0 258915157#2 258915157#3 258915157#4 258915157#5 533647594#0 533647594#1 533647594#2 533647594#3 533647594#4 533647594#5 533647594#6 533636531#5 533636531#6 533636531#7 533636531#8 533636531#9 497233764#0 497233764#1 -854190129#3 496011582#0 496011582#1 496011582#2 787494573#2 -787494573#2"/>
    </vehicle>
    <vehicle id="pass7" type="passenger" depart="7.00">
        <route edges="533636531#4 533636531#5 533636531#6 533636531#7 533647589#3 533636532#0 533636532#1 533636532#2 533636532#3 533636532#4 533636532#5 854276890 141873737#0 -211220455 211220455"/>
    </vehicle>
    <vehicle id="pass8" type="passenger" depart="8.00">
        <route edges="-792503690 -792503695#1 -792503695#0 792500998#3 792500998#4 792500998#5 792500998#6 -792506800 792501000#1 792501000#2 -253463713#2 253463713#2"/>
    </vehicle>
    <vehicle id="pass9" type="passenger" depart="9.00">
        <route edges="792564535 -792564535 792564552#1 253463635#0 253463635#1 253463635#2 253462682#7 253462682#8 -40438069#12 -40438069#11 211083071 742092172#2 792562056 742092173#1 742092173#2 849473587#0 849473587#1 742092166 -704770142#2 -704770142#1 -793478319 -141858113#0"/>
    </vehicle>
    <vehicle id="pass10" type="passenger" depart="10.00">
        <route edges="792562056 742092173#1 742092173#2 849473587#0 849473587#1 849465197 849465198 472156746#0 472156746#1 788955938#1 792594167#0 792594167#1 792594167#2 792594167#3 792594167#4 792594167#5 787929698 849473938#0 849473938#1 353363470#0 353363470#1 353363470#2 854206967#0 854206967#1 854206967#2 787927687"/>
    </vehicle>
    <vehicle id="pass11" type="passenger" depart="11.00">
        <route edges="-793489387#2 793489387#2 793489416 788955938#1 792594167#0 792594167#1 792594167#2 792594167#3 792594167#4 792594167#5 787929698 849473938#0 849473938#1 353363470#0 252505041 787930343 353363453#0 353363453#1 534302054 534302053#3 534302053#4 534302053#5 252503741#0 252503741#1 -252503741#1"/>
    </vehicle>
    <vehicle id="pass12" type="passenger" depart="12.00">
        <route edges="849299455#1 -213095603#5 -213095603#4 -213095603#3 -213095603#2 -213095603#1 -213095603#0 253462682#8 -40438069#12 -40438069#11 211083071 742092172#2 792562056 742092173#1 742092173#2 849473587#0 849473587#1 849465197 849465198 472156746#0 472156746#1 -793489416 -793489417#2 -793489417#1 -793489417#0"/>
    </vehicle>
    <vehicle id="pass13" type="passenger" depart="13.00">
        <route edges="-211087321 211087345#2 211087345#3 211087287#1 211087287#2 211087287#3 211087287#4 854276892#3 854276892#4 849465713#0 849465713#1 849465713#2 849465713#3 849465713#4 849299450 533411509#0 533411509#1 533411509#2 533411509#3 533411509#4 533411509#5 792509133 787927686#1 787927686#2 253462682#0 253462682#1 253462682#2 -211087333#5 -211087336#2"/>
    </vehicle>
    <vehicle id="pass14" type="passenger" depart="14.00">
        <route edges="792837621#1 -792837623#2 -792837623#1 792837606#0 -792837630 155218571#3 792837632#1 792837632#2 -155218542 155218578#1 155218578#2 -788940254#3 -788940254#2 -788940254#1 -788940254#0 -788940255 -155218529#7 -155218582#5 -155218532#5 -155218532#4 -155218532#3 -155218532#2 -155218532#1 -155218532#0 -155218487#10 -155218487#9 -155218487#8 -155218487#7 -155218487#6 -155218487#5 -155218487#4 -155218487#3 -155218487#2 -155218487#1 -155218487#0 252195420#5 252195420#6 252195420#7 252195420#8 252195420#9 252195420#10 252195420#11 252195420#12 252195420#13 854190360 854190359#0 854190359#1 854190359#2 787927688#0 854206966 253462741#0 253462741#1 253462741#2 253462741#3 253462741#4 253462741#5 253462741#6 253462741#7 854454259 787511656#0 787511656#1 787511656#2 854208691 260652987#0 260652987#1"/>
    </vehicle>
    <vehicle id="pass15" type="passenger" depart="15.00">
        <route edges="792564531 253462682#6 -253463635#2 213095619#1 253463713#0 253463713#1 253463713#2 792501000#3 792501000#4 792501000#5 792501000#6 792501000#7 792501000#8"/>
    </vehicle>
    <vehicle id="pass16" type="passenger" depart="16.00">
        <route edges="211089612#5 211089612#6 253462741#1 253462741#2 253462741#3 534302051#3 211087293#0 211087293#1 533647594#5 533647594#6 533636531#5 533636531#6 533636531#7 533636531#8 533636531#9 497233764#0 497233764#1 -854190129#3 854190129#3"/>
    </vehicle>
    <vehicle id="pass18" type="passenger" depart="18.00">
        <route edges="792598570 -40438069#8 -40438069#7 -40438069#6 40438069#6"/>
    </vehicle>
    <vehicle id="pass19" type="passenger" depart="19.00">
        <route edges="792837640#6 792837640#0 792837640#1 792837640#2 792837640#3 792837632#0 792837632#1 792837632#2 -155218542 155218578#1 155218578#2 -788940254#3 -788940254#2 -788940254#1 -788940254#0 -788940255 -155218529#7 -155218582#5 -155218532#5 -155218532#4 -155218532#3 -155218532#2 -155218532#1 -155218532#0 -155218487#10 792594167#4 792594167#5 787929698 849473938#0 849473938#1 353363470#0 252505041 787930343 353363453#0 353363453#1 534302054 534302053#3 534302053#4 534302053#5 534302053#0 534302051#0 -252505526#3 252505526#3"/>
    </vehicle>
    <vehicle id="pass20" type="passenger" depart="20.00">
        <route edges="788112297 -792837626#2 -792837626#1 -792837626#0 792837627 792837621#0 792837621#1 -792837623#2 -792837623#1 792837606#0 -792837630 155218571#3 792837632#1 792837632#2 -155218542 155218578#1 155218578#2 -788940254#3 -788940254#2 -788940254#1 -788940254#0 -788940255 -155218529#7 -155218582#5 -155218532#5 -155218532#4 -155218532#3 -155218504"/>
    </vehicle>
    <vehicle id="pass21" type="passenger" depart="21.00">
        <route edges="-792503695#4 -792503695#3 -792503695#2 -792503695#1 -792503695#0 792500998#3 792500998#4 792500998#5 792500998#6 -792506800 792501000#1 -792564535 792564552#1 -792564552#1"/>
    </vehicle>
    <vehicle id="pass22" type="passenger" depart="22.00">
        <route edges="-155218582#0 155218582#0 155218582#1 155218582#2 155218582#3 -155218487#14 -155218487#13 -155218487#12 -155218487#11 -155218487#10 -155218487#9 -155218487#8 -155218487#7 -155218487#6 -155218487#5 -155218487#4 -155218487#3 -155218487#2 -155218487#1 -155218487#0 792562059#0 253462682#5 253462682#6 253462682#7 213095603#0 213095603#1 213095603#2 213095603#3 213095603#4 213095603#5 849299455#2 849299454 849299453#0 849299453#1 533641889#0 533448460#0 533448460#1 792505163#0 792505163#1 -792505152#2 792505151 -792505151"/>
    </vehicle>
    <vehicle id="pass23" type="passenger" depart="23.00">
        <route edges="-211087339#0 -252195426#2 -252195426#1 -252195426#0 792501000#6 792501000#7 792501000#8 792500996 792500998#2 792500998#3 792500998#4 792500998#5 792500998#6 792500998#7 849299453#1 533641889#0 533448460#0 792506146 792505156#2 792505156#3 792505156#4 792505166#1 792505166#2 792505166#3 792505174#3 -792503696#9 792506142#0 792506142#1 792506142#2 792508508#0 -792508508#0"/>
    </vehicle>
    <vehicle id="pass24" type="passenger" depart="24.00">
        <route edges="497233764#0 -787487394#2 -787487394#1 -787487394#0 533647589#1 533647589#2 533647589#3 854276892#0 854276892#1 854276892#2 854276892#3 854276892#4 849465713#0 849465713#1 849465713#2 849465713#3 849465713#4 849299450 533411509#0 533411509#1 533411509#2 533411509#3 533411509#4 533411509#5 533411509#6 533411509#7 854190358#0 854190358#1 854190358#2 849299449 258915154 849300016 258915156#0 258915156#1 258915156#2 533592531#0 533592531#1 1151339363 155214122#0 155214122#1 259352271#3 259352271#4 259352271#5 472728061#0 472728061#1 472728061#2 792926209#0 792926209#1 793496711#0 793496711#1 -793496700#0 882485906#2 882485903#2 882485903#3 882485903#4 882485905#0 793496710#0 793496710#1 -793496952"/>
    </vehicle>
    <vehicle id="pass26" type="passenger" depart="26.00">
        <route edges="-792505182#1 792505182#1 792505182#2 792505182#3 -792505180 141873697#2 141873697#3 141873697#4 141873697#5 141873697#6 141873697#7 141873697#8 533641889#1 849299454 792501000#0 792501000#1 792501000#2 792501000#3 -256027331#4 -256027331#3 -256027331#2 -256027331#1 -256027331#0 792562059#1 155218487#0 155218487#1 155218487#2 155218487#3 155218487#4 155218487#5 155218487#6 155218487#7 155218487#8 155218487#9 155218487#10 155218487#11 155218487#12 155218487#13 155218487#14 155218487#15 259352271#4 259352271#5 472728061#0 472728061#1 472728061#2 792926209#0 792926209#1 793496711#0 793496711#1 793496700#1 793496712#0 793496712#1 793496712#2 793496712#3 -793496951#1 793496951#1"/>
    </vehicle>
    <vehicle id="pass27" type="passenger" depart="27.00">
        <route edges="533636531#10 -211088409#3 -787487394#3 -787487394#2 -787487394#1 -787487394#0 533647589#1 533647589#2 533647589#3 854276892#0 854276892#1 854276892#2 211087287#5 211087287#6 211087287#7 211087287#8 211087287#9 211087287#10 211087287#11 211087287#12 534302052#0 534302052#1 534302052#2 534302052#3 534302052#4 534302052#5 534302052#6 534302053#2 -534302054 -353363453#1 353363453#1"/>
    </vehicle>
    <vehicle id="pass28" type="passenger" depart="28.00">
        <route edges="-253466586#5 253466586#5 253466586#6 1161313110#1 1161313110#2 787511656#2 854208691 260652987#0 260652987#1 260652987#2 260652987#3 260652987#4 260652987#5 260652987#6 260652987#7 260652987#8 854190362#0 854190362#1 854190362#2 854190362#3 854190362#4 787927686#0 787927686#1 787927686#2 253462682#0 253462682#1 -252195426#8 -252195426#7 -252195426#6 -252195426#5 -252195426#4 -252195426#3 -252195426#2 -252195426#1 -252195426#0 792501000#6 792501000#7"/>
    </vehicle>
    <vehicle id="pass29" type="passenger" depart="29.00">
        <route edges="-252505526#0 252505526#0 252505526#1 252505526#2 252505526#3 534302051#1 534302051#2 534302051#3 211087293#0 211087293#1 533647594#5 533647594#6 533636531#5 533636531#6 533636531#7 533636531#8 533636531#9 533636531#10 -211088409#3 -211088409#2 -211088409#1 -211088409#0 -854190129#7"/>
    </vehicle>
    <vehicle id="pass30" type="passenger" depart="30.00">
        <route edges="858892584#1 849297237#0 849297237#1 849297237#2 849297237#3 849298498 788956336#0 788956336#1 472156747 742092172#0 742092172#1 742092172#2 788969088 252195420#1 252195420#2 252195420#3 252195420#4 252195420#5 252195420#6 252195420#7 252195420#8 252195420#9 252195420#10 252195420#11 252195420#12 252195420#13 854190360 854190359#0 854190359#1 854190359#2 787927688#0 854206966 253462741#0 253462741#1 253462741#2 253462741#3 253462741#4 253462741#5 253462741#6 253462741#7 854454259 787511656#0 787511656#1 787511656#2 533636531#0"/>
    </vehicle>
    <vehicle id="pass31" type="passenger" depart="31.00">
        <route edges="213095619#1 253463713#0 253463713#1 253463713#2 792501000#3 792501000#4 792501000#5 792501000#6 792501000#7 792501000#8 792501000#9 533411512#0 533411512#1 533411512#2 533411512#3 533411512#4 533647594#0 533647594#1 533647594#2 533647594#3 533647594#4 533647594#5 533647594#6 533636531#5 533636531#6 533636531#7 533636531#8 533636531#9 497233764#0 -787487394#2 -787487394#1 787487394#1"/>
    </vehicle>
    <vehicle id="pass32" type="passenger" depart="32.00">
        <route edges="792837613 -788899771#4 -788899771#3 -788899771#2 -788899771#1 -788899771#0 792594168#3 792594168#4 792594166#0 792594166#1 788956336#1 472156747 742092172#0 742092172#1 742092172#2 788969088 252195420#1 40438069#12 40438069#13 40438069#14 849299455#1 849299455#2 849299454 849299453#0 849299453#1 533641889#0 533448460#0 792506146 792505156#2 792505156#3 792505156#4 792505166#1 792505166#2 792505166#3 792505174#3 -792503696#9 -792503696#8 -792503696#7 -792503696#6 792505175"/>
    </vehicle>
    <vehicle id="pass33" type="passenger" depart="33.00">
        <route edges="-792503695#6 -792503695#5 -792503695#4 -792503692#1 -792503692#0 792503693 849299451#2 849299451#3 849299450 533411509#0 533411509#1 533411509#2 533411509#3 533411509#4 533411509#5 792509133 787927686#1 787927686#2 253462682#0 253462682#1 253462682#2 253462682#3 253462682#4 792562059#1 155218487#0 155218487#1 155218487#2 155218487#3 155218487#4 155218487#5 155218487#6 155218479#5 155218479#6 155218479#7 155218479#8 -155218485#5"/>
    </vehicle>
    <vehicle id="pass34" type="passenger" depart="34.00">
        <route edges="-792837617#0 -788940254#1 -788940254#0 -788940255 -155218529#7 -155218582#5 -155218532#5 -155218532#4 -155218532#3 -155218532#2 -155218532#1 -155218532#0 -155218487#10 -155218487#9 -155218487#8 -155218487#7 -155218487#6 -155218487#5 -155218487#4 -155218487#3 -155218487#2 -155218487#1 -155218487#0 792562059#0 253462682#5 253462682#6 253462682#7 213095603#0 213095603#1 213095603#2 213095603#3 213095603#4 213095603#5 849299455#2 849299454 849299453#0 849299453#1 533641889#0 533448460#0 792506146 792505156#2 792505156#3 792505156#4 792505166#1 792505166#2 792505166#3 792505174#3 -792503696#9 -792503696#8 -792503696#7 -792503696#6 -792503696#5 -792505179#4 -792505179#3 -792505179#2 -792506137#1"/>
    </vehicle>
    <vehicle id="pass35" type="passenger" depart="35.00">
        <route edges="-788940254#0 792837614#1 792837614#2 792837614#3 388329102#1 155218579#0 155218579#1 155218579#2 792839450#0 792839449 798289631"/>
    </vehicle>
    <vehicle id="pass37" type="passenger" depart="37.00">
        <route edges="533641889#1 849299454 849299453#0 849299453#1 533641889#0 533448460#0 792506146 792505156#2 792505156#3 792505156#4 792505166#1 792505166#2 792505166#3 792505174#3 -792503696#9 -792503696#8 -792503696#7 -792503696#6 -792503696#5 -792503696#4 -792503696#3 -792503696#2 -792503696#1 -792503696#0 141873697#4 141873697#5"/>
    </vehicle>
    <vehicle id="pass38" type="passenger" depart="38.00">
        <route edges="793489429#2 793489427#0 793489423#0 793489423#1 793489421#1 472156746#7 849465199#0 849465199#1 894895645 788944257 849297427 894895648 788944255 849297237#0 849297237#1 788944261 788899771#3 792837614#0 788940254#0 788940254#1 788940254#2 788940254#3 -155218578#2 -155218578#1 155218542"/>
    </vehicle>
    <vehicle id="pass39" type="passenger" depart="39.00">
        <route edges="-792505179#2 792505179#2 792505179#3 792505179#4 -792503696#4 -792503696#3 -792503696#2 -792505173#4 -792505173#3 -792505173#2 -792505170#0"/>
    </vehicle>
    <vehicle id="pass40" type="passenger" depart="40.00">
        <route edges="252195420#11 252195420#12 252195420#13 854190360 854190359#0 854190359#1 854190359#2 787927688#0 787927688#1 854190362#0 258915157#2 258915157#3 258915157#4 258915157#5 849465714#0 849465714#1 849465714#2 849465714#3 849465714#4 849465713#0 849465713#1 849465713#2 849465713#3 849465713#4 792500998#0 792500998#1 792500998#2 792500998#3 792500998#4 792500998#5 792500998#6 792500998#7 849299453#1 533641889#0 533448460#0 792506146 792505156#2 792505156#3 792505156#4 792505166#1 792505166#2 792505166#3 792505174#3 -792503696#9 -792503696#8 -792503696#7 -792503696#6 -792503696#5 -792503696#4 -792503696#3 -792503696#2 -792505182#6 -792505182#5"/>
    </vehicle>
    <vehicle id="pass41" type="passenger" depart="41.00">
        <route edges="252505526#3 534302051#1 534302051#2 534302051#3 260652987#4 260652987#5 260652987#6 260652987#7 260652987#8 854190362#0 854190362#1 854190362#2 854190362#3 854190362#4 787927686#0 787927686#1 787927686#2 253462682#0 253462682#1 253462682#2 253462682#3 253462682#4 792562059#1 155218487#0 155218487#1 155218487#2 155218487#3 155218487#4 155218487#5 155218487#6 155218487#7 155218487#8 792594168#2 792594168#3 792594168#4 792594168#5 788955938#0 -793489416 -793489417#2 793489388#0 793489388#1"/>
    </vehicle>
    <vehicle id="pass42" type="passenger" depart="42.00">
        <route edges="1161313111#0 -534884443#1 -534884443#0 533636531#1 533636531#2 533636531#3 533636531#4 533636531#5 533636531#6 533636531#7 533647589#3 854276892#0 854276892#1 854276892#2 854276892#3 854276892#4 849465713#0 849465713#1 849465713#2 849465713#3 849465713#4 792500998#0 -792503691#3 -792503691#2 -792503691#1 -792503691#0 -792503692#0 -792503694#3"/>
    </vehicle>
    <vehicle id="pass43" type="passenger" depart="43.00">
        <route edges="894895647 472728061#1 788944256 894895646 849465199#1 894895645 788944257 849297427 894895648 788944255 849297237#0 849297237#1 849297237#2 849297237#3 849298498 788956336#0 788956336#1 472156747 742092172#0 742092172#1 742092172#2 788969088 252195420#1 252195420#2 252195420#3 252195420#4 252195420#5 252195420#6 252195420#7 252195420#8 252195420#9 252195420#10 252195420#11 252195420#12 252195420#13 854190360 854190359#0 854190359#1 854190359#2 787927688#0 787927688#1 854190362#0 258915157#2 258915157#3 258915157#4 258915157#5 849465714#0 849465714#1 849465714#2 849465714#3 849465714#4 849465716#0 849465716#1 849465716#2 849465716#3 211087345#0 211087345#1 211087345#2 211087345#3"/>
    </vehicle>
    <vehicle id="pass44" type="passenger" depart="44.00">
        <route edges="-211087316#1 -211087316#0 252195426#8 253462682#2 253462682#3 253462682#4 792562059#1 155218487#0 155218487#1 155218487#2 155218487#3 155218487#4 155218487#5 155218487#6 155218487#7 155218487#8 155218487#9 155218487#10 155218532#0 155218532#1 155218532#2 155218532#3 155218532#4 -155218513"/>
    </vehicle>
    <vehicle id="pass45" type="passenger" depart="45.00">
        <route edges="-211088404 -787504456 -854190129#6 -854190129#5 -854190129#4 -854190129#3 496011582#0 496011582#1 496011582#2"/>
    </vehicle>
    <vehicle id="pass46" type="passenger" depart="46.00">
        <route edges="792506134#2 -792506134#2 -792506134#1 -792506134#0 -792503696#2 -792503696#1 -792503696#0 141873697#4 141873697#5 141873697#6 141873697#7 141873697#8 533641889#1 849299454 792501000#0 792501000#1 792501000#2 792501000#3 -256027331#4 -256027331#3 -256027331#2 -256027331#1 -256027331#0 792562059#1 155218487#0 155218487#1 155218487#2 155218487#3 -155218495 -155218481#6 155218481#6"/>
    </vehicle>
    <vehicle id="pass47" type="passenger" depart="47.00">
        <route edges="-155218548 -155218480#5 -155218487#10 -155218487#9 -155218487#8 -155218487#7 -155218487#6 -155218487#5 -155218487#4 -155218487#3 -155218487#2 -155218487#1 -155218487#0 792562059#0 253462682#5 253462682#6 253462682#7 213095603#0 213095603#1 213095603#2 213095603#3 213095603#4 213095603#5 849299455#2 849299454 849299453#0 849299453#1 533641889#0 533448460#0 792506146 792505156#2 792505156#3 792505156#4 792505166#1 792505166#2 792505166#3 792505174#3 -792503696#9 -792503696#8 -792503696#7 -792503696#6 -792503696#5 -792503696#4 -792503696#3 -792503696#2 -792503696#1 -792503696#0 141873697#4 -896487587"/>
    </vehicle>
    <vehicle id="pass48" type="passenger" depart="48.00">
        <route edges="888600577#1 277445720#1 614303166#1 614303166#2 534302051#2 534302051#3 260652987#4 534302052#0 534302052#1 534302052#2 534302052#3 211089624#0 211089624#1 211089624#2 211089612#2 211089612#3"/>
    </vehicle>
    <vehicle id="pass49" type="passenger" depart="49.00">
        <route edges="849473939 258915155 849465712 854206967#0 854206967#1 854206967#2 258915157#0 787927688#0 787927688#1 854190362#0 854190362#1 854190362#2 854190362#3 854190362#4 854190361 854190360 854190358#0 854190358#1 854190358#2 849299449 258915154 849300016 258915156#0 258915156#1 258915156#2 849300015 155213922 155213926#0 155213926#1 792839469#0 792839469#1 -792839455#1 -792839455#0 792839454 792839460#0 792837637 792837640#2 792837640#3"/>
    </vehicle>
    <vehicle id="pass50" type="passenger" depart="50.00">
        <route edges="-155214089#0 155214089#0 155214089#1 -155213940#0 849473939 258915155 849465712 854206967#0 854206967#1 854206967#2 258915157#0 787927688#0 787927688#1 854190362#0 854190362#1 854190362#2 854190362#3 854190362#4 787927686#0 787927686#1 787927686#2 253462682#0 253462682#1 253462682#2 253462682#3 253462682#4 253462682#5 253462682#6 253462682#7 253462682#8 253462682#9 788969087"/>
    </vehicle>
    <vehicle id="pass51" type="passenger" depart="51.00">
        <route edges="742092173#2 849473587#0 849473587#1 849465197 849465198 472156746#0 472156746#1 788955938#1 792594167#0 792594167#1 792594167#2 792594167#3 792594167#4 792594167#5 787929698 849473938#0 849473938#1 353363470#0 353363470#1 353363470#2 854206967#0 854206967#1 -211089620#1 211089620#1"/>
    </vehicle>
    <vehicle id="pass52" type="passenger" depart="52.00">
        <route edges="-792505182#1 792505182#1 792505182#2 792505182#3 -792505180 141873697#2 141873697#3 141873697#4 141873697#5 141873697#6 141873697#7 141873697#8 533641889#1 849299454 792501000#0 792501000#1 792501000#2 792501000#3 792501000#4 792501000#5 792501000#6 792501000#7 792501000#8 792501000#9 533411512#0 533411512#1 533411512#2 533411512#3 533411512#4 533647594#0 533647594#1 533647594#2 533647594#3 533647594#4 533647594#5 533647594#6 533636531#5 533636531#6 533636531#7 533636531#8 533636531#9 533636531#10 533636531#11"/>
    </vehicle>
    <vehicle id="pass53" type="passenger" depart="53.00">
        <route edges="-211088409#1 -211088409#0 -854190129#7 -854190129#6 -854190129#5 -854190129#4 -854190129#3 -854190129#2 -854190129#1 -854190129#0 533647589#0 533647589#1 533647589#2 533647589#3 854276892#0 854276892#1 854276892#2 854276892#3 854276892#4 849465713#0 849465713#1 849465713#2 849465713#3 849465713#4 849299450 533411509#0 533411509#1 533411509#2 533411509#3 533411509#4 533411509#5 533411509#6 533411509#7 854190358#0 854190358#1 854190358#2 849299449 258915154 849300016 258915156#0 258915156#1 155218573#0 155218573#1 155218573#2 155218573#3 155218573#4 155218487#14"/>
    </vehicle>
    <vehicle id="pass54" type="passenger" depart="54.00">
        <route edges="155218504 -155218532#2 -155218532#1 -155218532#0 -155218487#10 -155218487#9 -155218487#8 155218483#3 155218483#4 155218483#5 155218483#6 155218483#7 252195430#0 252195430#1 -211220454 854190358#2 849299449"/>
    </vehicle>
    <vehicle id="pass55" type="passenger" depart="55.00">
        <route edges="792839471#1 -792837605#1 -792837605#0 155218571#1 155218571#2 155218571#3 792837632#1 792837632#2 -155218542 155218578#1 155218578#2 -788940254#3 -788940254#2 -788940254#1 -788940254#0 -788940255 -155218529#7 -155218582#5 -155218532#5 -155218532#4 -155218532#3 -155218532#2 -155218532#1 -155218532#0 -155218487#10 -155218487#9 -155218487#8 -155218487#7 -155218487#6 -155218487#5 -155218487#4 -155218487#3 -155218487#2 -155218487#1 -155218487#0 792562059#0 253462682#5 253462682#6 253462682#7 213095603#0 213095603#1 213095603#2 213095603#3 213095603#4 213095603#5 849299455#2 849299454 849299453#0 849299453#1 533641889#0 533448460#0 792506146 792505156#2 792505156#3 792505156#4 792505166#1 792505166#2 792505166#3 792505174#3 -792503696#9 -792503696#8 -792503696#7 -792503696#6 -792503696#5 -792503696#4 -792503696#3 -792503696#2 -792505182#6"/>
    </vehicle>
    <vehicle id="pass56" type="passenger" depart="56.00">
        <route edges="211087301 -788899771#1 -788899771#0 40438069#0 40438069#1 40438069#2 40438069#3 40438069#4 40438069#5 -40438069#5"/>
    </vehicle>
    <vehicle id="pass57" type="passenger" depart="57.00">
        <route edges="793489427#3 -793489427#3 1091961254#0 793501011 472156746#6 472156746#7 849465199#0 849465199#1 894895645 788944257 849297427 849297238 388329102#0 388329102#1 388329102#2 533591530 533591525 -792837626#2 -792837626#1 -792837626#0 792837627 792837629#2 792837629#3 792839468 -792839469#4 -792839469#3 -792839469#2 -792839469#1 -792839463#2 -792839463#1 -792839463#0 792839463#0"/>
    </vehicle>
    <vehicle id="pass58" type="passenger" depart="58.00">
        <route edges="-792597364 -252195415#0 155218541#7 -155218487#2 -155218487#1 -155218487#0 252195420#5 252195420#6 252195420#7 252195420#8 252195420#9 252195420#10 252195420#11 252195420#12 252195420#13 854190360 854190359#0 854190359#1 854190359#2 787927688#0 854206966 253462741#0 253462741#1 253462741#2 253462741#3 253462741#4 253462741#5 253462741#6 253462741#7 854454259 787511656#0 533636526#0"/>
    </vehicle>
    <vehicle id="pass59" type="passenger" depart="59.00">
        <route edges="259352271#2 259352271#3 -155218487#15 -155218487#14 -155218487#13 -155218487#12 -155218487#11 -155218487#10 -155218487#9 -155218487#8 155218483#3 155218483#4 155218483#5 155218483#6 155218483#7 252195430#0 252195430#1 -252195430#1"/>
    </vehicle>
    <vehicle id="pass60" type="passenger" depart="60.00">
        <route edges="792505156#0 792505156#1 792505156#2 -792505155 141873697#8 533641889#1 849299454 792501000#0 792501000#1 792501000#2 792501000#3 792501000#4 792501000#5 792501000#6 792501000#7 792501000#8 792501000#9 533411512#0 533411512#1 533411512#2 533411512#3 533411512#4 533647594#0 533647594#1 533647594#2 533647594#3 211087287#8 211087287#9 211087287#10 211087287#11 211087287#12 534302052#0 534302052#1 534302052#2 534302052#3 211089624#0 211089624#1 211089624#2"/>
    </vehicle>
    <vehicle id="pass61" type="passenger" depart="61.00">
        <route edges="792505174#2 -792505166#3 -792505166#2 -792505166#1 -792505166#0 141873697#7 141873697#8 533641889#1 849299454 792501000#0 792501000#1 792501000#2 792501000#3 792501000#4 792501000#5 792501000#6 792501000#7 792501000#8 792501000#9 533411509#0 533411509#1 533411509#2 533411509#3 533411509#4 533411509#5 533411509#6 854190362#4 854190361 854190360 854190359#0 854190359#1 854190359#2 787927688#0 854206966 253462741#0 -211089612#6 211089612#6"/>
    </vehicle>
    <vehicle id="pass63" type="passenger" depart="63.00">
        <route edges="-155218480#2 -155218480#1 155218525 155218561#3 -1119844756#0 155218573#1 155218573#2 155218573#3 155218573#4 155218487#14 155218487#15 259352271#4 259352271#5 472728061#0 472728061#1 472728061#2 792926209#0 792926209#1 793496711#0 793496711#1 -793496700#0 882485906#2 882485903#2 882485903#3 882485903#4 882485905#0 793496710#0 793496710#1 793496710#2 793496710#3"/>
    </vehicle>
    <vehicle id="pass64" type="passenger" depart="64.00">
        <route edges="792947591#2 792947591#3 849297241#2 792926208 434716994 849297427 849297238 388329102#0 388329102#1 155218579#0 792837609#3 798289632 792837603#0"/>
    </vehicle>
    <vehicle id="pass65" type="passenger" depart="65.00">