<configuration>
    <input>
        <net-file value="map.net.xml"/>
        <route-files value="passenger_routes.rou.xml, bus_routes.rou.xml, trailer_routes.rou.xml, delivery_routes.rou.xml"/>
        <additional-files value="map.poly.xml"/>
    </input>
</configuration>
