<configuration>
    <input>
        <net-file value="map.net.xml"/>
        <route-files value="routes.rou.xml"/>
    </input>
    <time>
        <begin value="0"/>
        <end value="600"/>
        <step-length value="0.1"/>
    </time>
    <report>
        <verbose value="true"/>
        <duration-log.statistics value="true"/>
    </report>
</configuration>
