<?xml version="1.0" encoding="UTF-8"?>
<!-- generated on 2024-05-29 23:43:21.411954 by randomTrips.py UNKNOWN
  options: -n map.net.xml -r trailer_routes.rou.xml -o trailer_trips.xml -e 3600 -p 150 <doubleminus>vehicle-class trailer <doubleminus>trip-attributes=color="223,179,180" accel="0.5"
-->
<routes xmlns:xsi="http://www.w3.org/2001/XMLSchema-instance" xsi:noNamespaceSchemaLocation="http://sumo.dlr.de/xsd/routes_file.xsd">
    <vType id="trailer" vClass="trailer" color="223,179,180" accel="0.5"/>
    <trip id="0" depart="0.00" from="533411509#5" to="-155218481#8" type="trailer"/>
    <trip id="1" depart="150.00" from="-792506140#1" to="-792503695#7" type="trailer"/>
    <trip id="2" depart="300.00" from="792503682" to="787459184" type="trailer"/>
    <trip id="3" depart="450.00" from="793425813#1" to="-211087313#1" type="trailer"/>
    <trip id="4" depart="600.00" from="155218479#2" to="-155218485#0" type="trailer"/>
    <trip id="5" depart="750.00" from="-792503685" to="211087336#1" type="trailer"/>
    <trip id="6" depart="900.00" from="-155218483#0" to="-787494573#2" type="trailer"/>
    <trip id="7" depart="1050.00" from="533636531#4" to="211220455" type="trailer"/>
    <trip id="8" depart="1200.00" from="-792503690" to="253463713#2" type="trailer"/>
    <trip id="9" depart="1350.00" from="792564535" to="-141858113#0" type="trailer"/>
    <trip id="10" depart="1500.00" from="792562056" to="787927687" type="trailer"/>
    <trip id="11" depart="1650.00" from="-793489387#2" to="-252503741#1" type="trailer"/>
    <trip id="12" depart="1800.00" from="849299455#1" to="-793489417#0" type="trailer"/>
    <trip id="13" depart="1950.00" from="-211087321" to="-211087336#2" type="trailer"/>
    <trip id="14" depart="2100.00" from="792837621#1" to="260652987#1" type="trailer"/>
    <trip id="15" depart="2250.00" from="792564531" to="792501000#8" type="trailer"/>
    <trip id="16" depart="2400.00" from="211089612#5" to="854190129#3" type="trailer"/>
    <trip id="17" depart="2550.00" from="-793501009" to="252195416#3" type="trailer"/>
    <trip id="18" depart="2700.00" from="792598570" to="40438069#6" type="trailer"/>
    <trip id="19" depart="2850.00" from="792837640#6" to="252505526#3" type="trailer"/>
    <trip id="20" depart="3000.00" from="788112297" to="-155218504" type="trailer"/>
    <trip id="21" depart="3150.00" from="-792503695#4" to="-792564552#1" type="trailer"/>
    <trip id="22" depart="3300.00" from="-155218582#0" to="-792505151" type="trailer"/>
    <trip id="23" depart="3450.00" from="-211087339#0" to="-792508508#0" type="trailer"/>
</routes>
