<?xml version="1.0" encoding="UTF-8"?>

<!-- generated on 2024-05-29 23:43:21 by Eclipse SUMO duarouter Version 1.20.0
<configuration xmlns:xsi="http://www.w3.org/2001/XMLSchema-instance" xsi:noNamespaceSchemaLocation="http://sumo.dlr.de/xsd/duarouterConfiguration.xsd">

    <input>
        <net-file value="map.net.xml"/>
        <route-files value="trailer_trips.xml"/>
    </input>

    <output>
        <output-file value="trailer_routes.rou.xml"/>
    </output>

    <time>
        <begin value="0"/>
        <end value="3600"/>
    </time>

    <report>
        <no-warnings value="true"/>
        <ignore-errors value="true"/>
        <no-step-log value="true"/>
    </report>

</configuration>
-->

<routes xmlns:xsi="http://www.w3.org/2001/XMLSchema-instance" xsi:noNamespaceSchemaLocation="http://sumo.dlr.de/xsd/routes_file.xsd">
    <vType id="trailer" vClass="trailer" color="223,179,180" accel="0.5"/>
    <vehicle id="trailer0" type="trailer" depart="0.00">
        <route edges="533411509#5 792509133 787927686#1 787927686#2 253462682#0 253462682#1 253462682#2 253462682#3 253462682#4 792562059#1 155218487#0 155218487#1 155218551#0 -155218481#9 -155218481#8"/>
    </vehicle>
    <vehicle id="trailer1" type="trailer" depart="150.00">
        <route edges="-792506140#1 -792506136#1 -792506136#0 792506137#1 792505179#2 792505179#3 792505179#4 -792503696#4 -792503696#3 -792503696#2 -792503696#1 -792503696#0 141873697#4 141873697#5 141873697#6 141873697#7 141873697#8 533641889#1 849299454 849299453#0 849299453#1 141873691#0 141873691#1 141873691#2 141873691#3 141873691#4 141873691#5 -792503695#10 -792503695#9 -792503695#8 -792503695#7"/>
    </vehicle>
    <vehicle id="trailer2" type="trailer" depart="300.00">
        <route edges="792503682 792503683#2 792503680 -792503695#4 -792503692#1 -792503692#0 792503693 849299451#2 849299451#3 849299450 533411512#0 533411512#1 533411512#2 533411512#3 533411512#4 533647594#0 533647594#1 -211088385#5 -211088385#4 787459184"/>
    </vehicle>
    <vehicle id="trailer3" type="trailer" depart="450.00">
        <route edges="793425813#1 793425813#2 793425813#3 793425813#4 793425813#0 793425812 849465196 472156746#0 793489414 788956336#1 472156747 742092172#0 742092172#1 742092172#2 788969088 252195420#1 252195420#2 252195420#3 252195420#4 252195420#5 252195420#6 252195420#7 252195420#8 252195420#9 252195420#10 252195420#11 252195420#12 252195420#13 854190360 854190359#0 854190359#1 854190359#2 787927688#0 854206966 253462741#0 253462741#1 253462741#2 253462741#3 534302051#3 211087293#0 211087293#1 211087293#2 211087293#3 211087293#4 211087293#5 211087313#0 211087313#1 -211087313#1"/>
    </vehicle>
    <vehicle id="trailer4" type="trailer" depart="600.00">
        <route edges="155218479#2 155218479#3 155218479#4 155218479#5 155218481#4 155218481#5 155218481#6 155218481#7 155218481#8 155218481#9 155218551#1 -155218485#0"/>
    </vehicle>
    <vehicle id="trailer5" type="trailer" depart="750.00">
        <route edges="-792503685 792503685 849299451#1 849299451#2 849299451#3 849299450 533411509#0 533411509#1 533411509#2 533411509#3 533411509#4 533411509#5 792509133 787927686#1 787927686#2 253462682#0 253462682#1 253462682#2 253462682#3 792564539 211087336#1"/>
    </vehicle>
    <vehicle id="trailer6" type="trailer" depart="900.00">
        <route edges="-155218483#0 155218483#0 155218483#1 155218481#0 155218481#1 155218481#2 155218481#3 155218481#4 -155218544#0 -155218487#5 -155218487#4 -155218487#3 -155218487#2 -155218487#1 -155218487#0 252195420#5 252195420#6 252195420#7 252195420#8 252195420#9 252195420#10 252195420#11 252195420#12 252195420#13 854190360 854190359#0 854190359#1 854190359#2 787927688#0 787927688#1 854190362#0 258915157#2 258915157#3 258915157#4 258915157#5 533647594#0 533647594#1 533647594#2 533647594#3 533647594#4 533647594#5 533647594#6 533636531#5 533636531#6 533636531#7 533636531#8 533636531#9 497233764#0 497233764#1 -854190129#3 496011582#0 496011582#1 496011582#2 787494573#2 -787494573#2"/>
    </vehicle>
    <vehicle id="trailer7" type="trailer" depart="1050.00">
        <route edges="533636531#4 533636531#5 533636531#6 533636531#7 533647589#3 533636532#0 533636532#1 533636532#2 533636532#3 533636532#4 533636532#5 854276890 141873737#0 -211220455 211220455"/>
    </vehicle>
    <vehicle id="trailer8" type="trailer" depart="1200.00">
        <route edges="-792503690 -792503695#1 -792503695#0 792500998#3 792500998#4 792500998#5 792500998#6 -792506800 792501000#1 792501000#2 -253463713#2 253463713#2"/>
    </vehicle>
    <vehicle id="trailer9" type="trailer" depart="1350.00">
        <route edges="792564535 -792564535 792564552#1 253463635#0 253463635#1 253463635#2 253462682#7 253462682#8 -40438069#12 -40438069#11 211083071 742092172#2 792562056 742092173#1 742092173#2 849473587#0 849473587#1 742092166 -704770142#2 -704770142#1 -793478319 -141858113#0"/>
    </vehicle>
    <vehicle id="trailer10" type="trailer" depart="1500.00">
        <route edges="792562056 742092173#1 742092173#2 849473587#0 849473587#1 849465197 849465198 472156746#0 472156746#1 788955938#1 792594167#0 792594167#1 792594167#2 792594167#3 792594167#4 792594167#5 787929698 849473938#0 849473938#1 353363470#0 353363470#1 353363470#2 854206967#0 854206967#1 854206967#2 787927687"/>
    </vehicle>
    <vehicle id="trailer11" type="trailer" depart="1650.00">
        <route edges="-793489387#2 793489387#2 793489416 788955938#1 792594167#0 792594167#1 792594167#2 792594167#3 792594167#4 792594167#5 787929698 849473938#0 849473938#1 353363470#0 252505041 787930343 353363453#0 353363453#1 534302054 534302053#3 534302053#4 534302053#5 252503741#0 252503741#1 -252503741#1"/>
    </vehicle>
    <vehicle id="trailer12" type="trailer" depart="1800.00">
        <route edges="849299455#1 -213095603#5 -213095603#4 -213095603#3 -213095603#2 -213095603#1 -213095603#0 253462682#8 -40438069#12 -40438069#11 211083071 742092172#2 792562056 742092173#1 742092173#2 849473587#0 849473587#1 849465197 849465198 472156746#0 472156746#1 -793489416 -793489417#2 -793489417#1 -793489417#0"/>
    </vehicle>
    <vehicle id="trailer13" type="trailer" depart="1950.00">
        <route edges="-211087321 211087345#2 211087345#3 211087287#1 211087287#2 211087287#3 211087287#4 854276892#3 854276892#4 849465713#0 849465713#1 849465713#2 849465713#3 849465713#4 849299450 533411509#0 533411509#1 533411509#2 533411509#3 533411509#4 533411509#5 792509133 787927686#1 787927686#2 253462682#0 253462682#1 253462682#2 -211087333#5 -211087336#2"/>
    </vehicle>
    <vehicle id="trailer14" type="trailer" depart="2100.00">
        <route edges="792837621#1 -792837623#2 -792837623#1 792837606#0 -792837630 155218571#3 792837632#1 792837632#2 -155218542 155218578#1 155218578#2 -788940254#3 -788940254#2 -788940254#1 -788940254#0 -788940255 -155218529#7 -155218582#5 -155218532#5 -155218532#4 -155218532#3 -155218532#2 -155218532#1 -155218532#0 -155218487#10 -155218487#9 -155218487#8 -155218487#7 -155218487#6 -155218487#5 -155218487#4 -155218487#3 -155218487#2 -155218487#1 -155218487#0 252195420#5 252195420#6 252195420#7 252195420#8 252195420#9 252195420#10 252195420#11 252195420#12 252195420#13 854190360 854190359#0 854190359#1 854190359#2 787927688#0 854206966 253462741#0 253462741#1 253462741#2 253462741#3 253462741#4 253462741#5 253462741#6 253462741#7 854454259 787511656#0 787511656#1 787511656#2 854208691 260652987#0 260652987#1"/>
    </vehicle>
    <vehicle id="trailer15" type="trailer" depart="2250.00">
        <route edges="792564531 253462682#6 -253463635#2 213095619#1 253463713#0 253463713#1 253463713#2 792501000#3 792501000#4 792501000#5 792501000#6 792501000#7 792501000#8"/>
    </vehicle>
    <vehicle id="trailer16" type="trailer" depart="2400.00">
        <route edges="211089612#5 211089612#6 253462741#1 253462741#2 253462741#3 534302051#3 211087293#0 211087293#1 533647594#5 533647594#6 533636531#5 533636531#6 533636531#7 533636531#8 533636531#9 497233764#0 497233764#1 -854190129#3 854190129#3"/>
    </vehicle>
    <vehicle id="trailer18" type="trailer" depart="2700.00">
        <route edges="792598570 -40438069#8 -40438069#7 -40438069#6 40438069#6"/>
    </vehicle>
    <vehicle id="trailer19" type="trailer" depart="2850.00">
        <route edges="792837640#6 792837640#0 792837640#1 792837640#2 792837640#3 792837632#0 792837632#1 792837632#2 -155218542 155218578#1 155218578#2 -788940254#3 -788940254#2 -788940254#1 -788940254#0 -788940255 -155218529#7 -155218582#5 -155218532#5 -155218532#4 -155218532#3 -155218532#2 -155218532#1 -155218532#0 -155218487#10 792594167#4 792594167#5 787929698 849473938#0 849473938#1 353363470#0 252505041 787930343 353363453#0 353363453#1 534302054 534302053#3 534302053#4 534302053#5 534302053#0 534302051#0 -252505526#3 252505526#3"/>
    </vehicle>
    <vehicle id="trailer20" type="trailer" depart="3000.00">
        <route edges="788112297 -792837626#2 -792837626#1 -792837626#0 792837627 792837621#0 792837621#1 -792837623#2 -792837623#1 792837606#0 -792837630 155218571#3 792837632#1 792837632#2 -155218542 155218578#1 155218578#2 -788940254#3 -788940254#2 -788940254#1 -788940254#0 -788940255 -155218529#7 -155218582#5 -155218532#5 -155218532#4 -155218532#3 -155218504"/>
    </vehicle>
    <vehicle id="trailer21" type="trailer" depart="3150.00">
        <route edges="-792503695#4 -792503695#3 -792503695#2 -792503695#1 -792503695#0 792500998#3 792500998#4 792500998#5 792500998#6 -792506800 792501000#1 -792564535 792564552#1 -792564552#1"/>
    </vehicle>
    <vehicle id="trailer22" type="trailer" depart="3300.00">
        <route edges="-155218582#0 155218582#0 155218582#1 155218582#2 155218582#3 -155218487#14 -155218487#13 -155218487#12 -155218487#11 -155218487#10 -155218487#9 -155218487#8 -155218487#7 -155218487#6 -155218487#5 -155218487#4 -155218487#3 -155218487#2 -155218487#1 -155218487#0 792562059#0 253462682#5 253462682#6 253462682#7 213095603#0 213095603#1 213095603#2 213095603#3 213095603#4 213095603#5 849299455#2 849299454 849299453#0 849299453#1 533641889#0 533448460#0 533448460#1 792505163#0 792505163#1 -792505152#2 792505151 -792505151"/>
    </vehicle>
    <vehicle id="trailer23" type="trailer" depart="3450.00">
        <route edges="-211087339#0 -252195426#2 -252195426#1 -252195426#0 792501000#6 792501000#7 792501000#8 792500996 792500998#2 792500998#3 792500998#4 792500998#5 792500998#6 792500998#7 849299453#1 533641889#0 533448460#0 792506146 792505156#2 792505156#3 792505156#4 792505166#1 792505166#2 792505166#3 792505174#3 -792503696#9 792506142#0 792506142#1 792506142#2 792508508#0 -792508508#0"/>
    </vehicle>
</routes>
