<?xml version="1.0" encoding="UTF-8"?>
<!-- generated on 2024-05-29 23:43:16.701189 by randomTrips.py UNKNOWN
  options: -n map.net.xml -r truck_routes.rou.xml -o truck_trips.xml -e 3600 -p 15 <doubleminus>vehicle-class truck <doubleminus>trip-attributes=color="179,223,183"
-->
<routes xmlns:xsi="http://www.w3.org/2001/XMLSchema-instance" xsi:noNamespaceSchemaLocation="http://sumo.dlr.de/xsd/routes_file.xsd">
    <vType id="truck" vClass="truck" color="179,223,183"/>
    <trip id="0" depart="0.00" from="533411509#5" to="-155218481#8" type="truck"/>
    <trip id="1" depart="15.00" from="-792506140#1" to="-792503695#7" type="truck"/>
    <trip id="2" depart="30.00" from="792503682" to="787459184" type="truck"/>
    <trip id="3" depart="45.00" from="793425813#1" to="-211087313#1" type="truck"/>
    <trip id="4" depart="60.00" from="155218479#2" to="-155218485#0" type="truck"/>
    <trip id="5" depart="75.00" from="-792503685" to="211087336#1" type="truck"/>
    <trip id="6" depart="90.00" from="-155218483#0" to="-787494573#2" type="truck"/>
    <trip id="7" depart="105.00" from="533636531#4" to="211220455" type="truck"/>
    <trip id="8" depart="120.00" from="-792503690" to="253463713#2" type="truck"/>
    <trip id="9" depart="135.00" from="792564535" to="-141858113#0" type="truck"/>
    <trip id="10" depart="150.00" from="792562056" to="787927687" type="truck"/>
    <trip id="11" depart="165.00" from="-793489387#2" to="-252503741#1" type="truck"/>
    <trip id="12" depart="180.00" from="849299455#1" to="-793489417#0" type="truck"/>
    <trip id="13" depart="195.00" from="-211087321" to="-211087336#2" type="truck"/>
    <trip id="14" depart="210.00" from="792837621#1" to="260652987#1" type="truck"/>
    <trip id="15" depart="225.00" from="792564531" to="792501000#8" type="truck"/>
    <trip id="16" depart="240.00" from="211089612#5" to="854190129#3" type="truck"/>
    <trip id="17" depart="255.00" from="-793501009" to="252195416#3" type="truck"/>
    <trip id="18" depart="270.00" from="792598570" to="40438069#6" type="truck"/>
    <trip id="19" depart="285.00" from="792837640#6" to="252505526#3" type="truck"/>
    <trip id="20" depart="300.00" from="788112297" to="-155218504" type="truck"/>
    <trip id="21" depart="315.00" from="-792503695#4" to="-792564552#1" type="truck"/>
    <trip id="22" depart="330.00" from="-155218582#0" to="-792505151" type="truck"/>
    <trip id="23" depart="345.00" from="-211087339#0" to="-792508508#0" type="truck"/>
    <trip id="24" depart="360.00" from="497233764#0" to="-793496952" type="truck"/>
    <trip id="25" depart="375.00" from="-793496712#2" to="-792503679#1" type="truck"/>
    <trip id="26" depart="390.00" from="-792505182#1" to="793496951#1" type="truck"/>
    <trip id="27" depart="405.00" from="533636531#10" to="353363453#1" type="truck"/>
    <trip id="28" depart="420.00" from="-253466586#5" to="792501000#7" type="truck"/>
    <trip id="29" depart="435.00" from="-252505526#0" to="-854190129#7" type="truck"/>
    <trip id="30" depart="450.00" from="858892584#1" to="533636531#0" type="truck"/>
    <trip id="31" depart="465.00" from="213095619#1" to="787487394#1" type="truck"/>
    <trip id="32" depart="480.00" from="792837613" to="792505175" type="truck"/>
    <trip id="33" depart="495.00" from="-792503695#6" to="-155218485#5" type="truck"/>
    <trip id="34" depart="510.00" from="-792837617#0" to="-792506137#1" type="truck"/>
    <trip id="35" depart="525.00" from="-788940254#0" to="798289631" type="truck"/>
    <trip id="36" depart="540.00" from="792926209#0" to="-792839463#1" type="truck"/>
    <trip id="37" depart="555.00" from="533641889#1" to="141873697#5" type="truck"/>
    <trip id="38" depart="570.00" from="793489429#2" to="155218542" type="truck"/>
    <trip id="39" depart="585.00" from="-792505179#2" to="-792505170#0" type="truck"/>
    <trip id="40" depart="600.00" from="252195420#11" to="-792505182#5" type="truck"/>
    <trip id="41" depart="615.00" from="252505526#3" to="793489388#1" type="truck"/>
    <trip id="42" depart="630.00" from="1161313111#0" to="-792503694#3" type="truck"/>
    <trip id="43" depart="645.00" from="894895647" to="211087345#3" type="truck"/>
    <trip id="44" depart="660.00" from="-211087316#1" to="-155218513" type="truck"/>
    <trip id="45" depart="675.00" from="-211088404" to="496011582#2" type="truck"/>
    <trip id="46" depart="690.00" from="792506134#2" to="155218481#6" type="truck"/>
    <trip id="47" depart="705.00" from="-155218548" to="-896487587" type="truck"/>
    <trip id="48" depart="720.00" from="888600577#1" to="211089612#3" type="truck"/>
    <trip id="49" depart="735.00" from="849473939" to="792837640#3" type="truck"/>
    <trip id="50" depart="750.00" from="-155214089#0" to="788969087" type="truck"/>
    <trip id="51" depart="765.00" from="742092173#2" to="211089620#1" type="truck"/>
    <trip id="52" depart="780.00" from="-792505182#1" to="533636531#11" type="truck"/>
    <trip id="53" depart="795.00" from="-211088409#1" to="155218487#14" type="truck"/>
    <trip id="54" depart="810.00" from="155218504" to="849299449" type="truck"/>
    <trip id="55" depart="825.00" from="792839471#1" to="-792505182#6" type="truck"/>
    <trip id="56" depart="840.00" from="211087301" to="-40438069#5" type="truck"/>
    <trip id="57" depart="855.00" from="793489427#3" to="792839463#0" type="truck"/>
    <trip id="58" depart="870.00" from="-792597364" to="533636526#0" type="truck"/>
    <trip id="59" depart="885.00" from="259352271#2" to="-252195430#1" type="truck"/>
    <trip id="60" depart="900.00" from="792505156#0" to="211089624#2" type="truck"/>
    <trip id="61" depart="915.00" from="792505174#2" to="211089612#6" type="truck"/>
    <trip id="62" depart="930.00" from="-1091961253#1" to="-792950036#2" type="truck"/>
    <trip id="63" depart="945.00" from="-155218480#2" to="793496710#3" type="truck"/>
    <trip id="64" depart="960.00" from="792947591#2" to="792837603#0" type="truck"/>
    <trip id="65" depart="975.00" from="-792837605#1" to="-155218541#2" type="truck"/>
    <trip id="66" depart="990.00" from="792947591#0" to="798369034#0" type="truck"/>
    <trip id="67" depart="1005.00" from="-211087303" to="211087287#7" type="truck"/>
    <trip id="68" depart="1020.00" from="-155218569#0" to="792505157#0" type="truck"/>
    <trip id="69" depart="1035.00" from="792505160#2" to="-211089621#2" type="truck"/>
    <trip id="70" depart="1050.00" from="155218561#3" to="252195415#0" type="truck"/>
    <trip id="71" depart="1065.00" from="-792505179#2" to="792839469#0" type="truck"/>
    <trip id="72" depart="1080.00" from="155218479#5" to="-792503683#2" type="truck"/>
    <trip id="73" depart="1095.00" from="211089617#0" to="792501000#9" type="truck"/>
    <trip id="74" depart="1110.00" from="-787494573#2" to="-792839454" type="truck"/>
    <trip id="75" depart="1125.00" from="882485906#1" to="533647589#2" type="truck"/>
    <trip id="76" depart="1140.00" from="155218485#1" to="211088409#0" type="truck"/>
    <trip id="77" depart="1155.00" from="-211088426#0" to="-792503696#0" type="truck"/>
    <trip id="78" depart="1170.00" from="-793478319" to="253463635#2" type="truck"/>
    <trip id="79" depart="1185.00" from="-792503695#9" to="-792503695#1" type="truck"/>
    <trip id="80" depart="1200.00" from="-155218569#4" to="533411509#4" type="truck"/>
    <trip id="81" depart="1215.00" from="-792503695#6" to="793489418#1" type="truck"/>
    <trip id="82" depart="1230.00" from="792837640#1" to="-155218571#2" type="truck"/>
    <trip id="83" depart="1245.00" from="-792505149" to="614303166#1" type="truck"/>
    <trip id="84" depart="1260.00" from="-792503678" to="-211210264#1" type="truck"/>
    <trip id="85" depart="1275.00" from="793496951#1" to="252504072#0" type="truck"/>
    <trip id="86" depart="1290.00" from="155218559#0" to="792505182#3" type="truck"/>
    <trip id="87" depart="1305.00" from="792564532" to="-758670124#1" type="truck"/>
    <trip id="88" depart="1320.00" from="-211087333#2" to="155218485#7" type="truck"/>
    <trip id="89" depart="1335.00" from="155218479#6" to="155218569#1" type="truck"/>
    <trip id="90" depart="1350.00" from="792500998#6" to="742092172#0" type="truck"/>
    <trip id="91" depart="1365.00" from="854276891#1" to="-211087339#1" type="truck"/>
    <trip id="92" depart="1380.00" from="141873691#2" to="-793489418#3" type="truck"/>
    <trip id="93" depart="1395.00" from="792837640#6" to="-792505172#0" type="truck"/>
    <trip id="94" depart="1410.00" from="-614303166#1" to="155218529#0" type="truck"/>
    <trip id="95" depart="1425.00" from="155218479#2" to="-792508509" type="truck"/>
    <trip id="96" depart="1440.00" from="-792505163#2" to="793496707#1" type="truck"/>
    <trip id="97" depart="1455.00" from="155218487#11" to="792837640#4" type="truck"/>
    <trip id="98" depart="1470.00" from="211220446" to="-155218529#0" type="truck"/>
    <trip id="99" depart="1485.00" from="896480221" to="792837606#2" type="truck"/>
    <trip id="100" depart="1500.00" from="849473587#1" to="793496709#2" type="truck"/>
    <trip id="101" depart="1515.00" from="792837623#0" to="-253466586#1" type="truck"/>
    <trip id="102" depart="1530.00" from="155218579#3" to="-792503688" type="truck"/>
    <trip id="103" depart="1545.00" from="1214482945#1" to="-155218541#4" type="truck"/>
    <trip id="104" depart="1560.00" from="-793501010" to="854276892#0" type="truck"/>
    <trip id="105" depart="1575.00" from="-792505179#3" to="792505182#2" type="truck"/>
    <trip id="106" depart="1590.00" from="155218513" to="155218481#8" type="truck"/>
    <trip id="107" depart="1605.00" from="849299455#1" to="888600577#0" type="truck"/>
    <trip id="108" depart="1620.00" from="213095603#5" to="788955937" type="truck"/>
    <trip id="109" depart="1635.00" from="-252195426#8" to="-792837603#3" type="truck"/>
    <trip id="110" depart="1650.00" from="849473587#0" to="253462682#0" type="truck"/>
    <trip id="111" depart="1665.00" from="211089619#0" to="792503696#10" type="truck"/>
    <trip id="112" depart="1680.00" from="-155218532#5" to="253462741#1" type="truck"/>
    <trip id="113" depart="1695.00" from="211087313#0" to="792837627" type="truck"/>
    <trip id="114" depart="1710.00" from="-252195430#5" to="849465199#1" type="truck"/>
    <trip id="115" depart="1725.00" from="-155218582#1" to="-534501367#1" type="truck"/>
    <trip id="116" depart="1740.00" from="253463635#2" to="742092173#2" type="truck"/>
    <trip id="117" depart="1755.00" from="-792503696#4" to="-211089612#5" type="truck"/>
    <trip id="118" depart="1770.00" from="793425807#1" to="-792505170#0" type="truck"/>
    <trip id="119" depart="1785.00" from="253463635#1" to="40438069#8" type="truck"/>
    <trip id="120" depart="1800.00" from="155214116" to="253462741#0" type="truck"/>
    <trip id="121" depart="1815.00" from="211088405#1" to="793496714#0" type="truck"/>
    <trip id="122" depart="1830.00" from="-787511658" to="788944260#2" type="truck"/>
    <trip id="123" depart="1845.00" from="-792505151" to="141873697#5" type="truck"/>
    <trip id="124" depart="1860.00" from="534304411#3" to="-792837606#2" type="truck"/>
    <trip id="125" depart="1875.00" from="-792837617#1" to="792503696#4" type="truck"/>
    <trip id="126" depart="1890.00" from="-155218571#3" to="155218541#7" type="truck"/>
    <trip id="127" depart="1905.00" from="894895651" to="894895645" type="truck"/>
    <trip id="128" depart="1920.00" from="-155218573#0" to="-792503686" type="truck"/>
    <trip id="129" depart="1935.00" from="-792505179#3" to="793496712#5" type="truck"/>
    <trip id="130" depart="1950.00" from="792948492#0" to="792947592#0" type="truck"/>
    <trip id="131" depart="1965.00" from="-793496712#0" to="-252505383#1" type="truck"/>
    <trip id="132" depart="1980.00" from="792837604" to="788897001" type="truck"/>
    <trip id="133" depart="1995.00" from="260652987#2" to="854276892#4" type="truck"/>
    <trip id="134" depart="2010.00" from="533636532#4" to="-155214051#0" type="truck"/>
    <trip id="135" depart="2025.00" from="792564551#1" to="-792837606#1" type="truck"/>
    <trip id="136" depart="2040.00" from="534302052#0" to="793497539#0" type="truck"/>
    <trip id="137" depart="2055.00" from="-211089624#4" to="-211088422#3" type="truck"/>
    <trip id="138" depart="2070.00" from="-211088387" to="252195420#10" type="truck"/>
    <trip id="139" depart="2085.00" from="-792506136#0" to="260652987#3" type="truck"/>
    <trip id="140" depart="2100.00" from="788944259#2" to="-788899771#1" type="truck"/>
    <trip id="141" depart="2115.00" from="496010575#1" to="-792505188" type="truck"/>
    <trip id="142" depart="2130.00" from="155218590#0" to="793489418#0" type="truck"/>
    <trip id="143" depart="2145.00" from="792837617#0" to="-211087331#1" type="truck"/>
    <trip id="144" depart="2160.00" from="155218479#6" to="-792506815#2" type="truck"/>
    <trip id="145" depart="2175.00" from="-1119844757#0" to="792505171#0" type="truck"/>
    <trip id="146" depart="2190.00" from="533411509#0" to="-792505182#3" type="truck"/>
    <trip id="147" depart="2205.00" from="792503691#0" to="252195416#2" type="truck"/>
    <trip id="148" depart="2220.00" from="155218480#5" to="-155214088#0" type="truck"/>
    <trip id="149" depart="2235.00" from="-155218575#0" to="792950035#0" type="truck"/>
    <trip id="150" depart="2250.00" from="793489417#1" to="211220464#1" type="truck"/>
    <trip id="151" depart="2265.00" from="792837605#1" to="253462682#7" type="truck"/>
    <trip id="152" depart="2280.00" from="-252195425#3" to="-211089621#0" type="truck"/>
    <trip id="153" depart="2295.00" from="-792837606#0" to="793489390" type="truck"/>
    <trip id="154" depart="2310.00" from="792506142#2" to="792837640#3" type="truck"/>
    <trip id="155" depart="2325.00" from="793489389#0" to="-792503680" type="truck"/>
    <trip id="156" depart="2340.00" from="-792505163#2" to="-211088385#3" type="truck"/>
    <trip id="157" depart="2355.00" from="792505176#1" to="792950036#2" type="truck"/>
    <trip id="158" depart="2370.00" from="141873697#4" to="472156746#0" type="truck"/>
    <trip id="159" depart="2385.00" from="-252195426#8" to="793496710#5" type="truck"/>
    <trip id="160" depart="2400.00" from="792839454" to="854190358#0" type="truck"/>
    <trip id="161" depart="2415.00" from="792564538" to="792948493#0" type="truck"/>
    <trip id="162" depart="2430.00" from="-155218481#6" to="792503689" type="truck"/>
    <trip id="163" depart="2445.00" from="-792950036#2" to="793496711#1" type="truck"/>
    <trip id="164" depart="2460.00" from="792506815#1" to="792839451" type="truck"/>
    <trip id="165" depart="2475.00" from="792564538" to="-792506136#1" type="truck"/>
    <trip id="166" depart="2490.00" from="792505182#1" to="-211088409#1" type="truck"/>
    <trip id="167" depart="2505.00" from="792839468" to="792837639#0" type="truck"/>
    <trip id="168" depart="2520.00" from="-792503691#3" to="792564552#1" type="truck"/>
    <trip id="169" depart="2535.00" from="155218529#4" to="-792837615#1" type="truck"/>
    <trip id="170" depart="2550.00" from="792506142#0" to="-792503696#15" type="truck"/>
    <trip id="171" depart="2565.00" from="-155218481#3" to="-787473346#1" type="truck"/>
    <trip id="172" depart="2580.00" from="-792948491" to="792839452" type="truck"/>
    <trip id="173" depart="2595.00" from="849465716#0" to="-792564532" type="truck"/>
    <trip id="174" depart="2610.00" from="533411512#2" to="155213926#0" type="truck"/>
    <trip id="175" depart="2625.00" from="854206966" to="211089619#1" type="truck"/>
    <trip id="176" depart="2640.00" from="793501008" to="-211088422#3" type="truck"/>
    <trip id="177" depart="2655.00" from="849473938#0" to="-40438069#5" type="truck"/>
    <trip id="178" depart="2670.00" from="849465713#0" to="-792506134#1" type="truck"/>
    <trip id="179" depart="2685.00" from="-211088393" to="155218487#13" type="truck"/>
    <trip id="180" depart="2700.00" from="792500998#5" to="-792839462#1" type="truck"/>
    <trip id="181" depart="2715.00" from="258915157#2" to="211088385#2" type="truck"/>
    <trip id="182" depart="2730.00" from="-798369034#0" to="252505526#1" type="truck"/>
    <trip id="183" depart="2745.00" from="-792505171#1" to="788940254#4" type="truck"/>
    <trip id="184" depart="2760.00" from="-1091961253#3" to="793496708#1" type="truck"/>
    <trip id="185" depart="2775.00" from="211089615" to="788955938#1" type="truck"/>
    <trip id="186" depart="2790.00" from="792503691#2" to="64183437#1" type="truck"/>
    <trip id="187" depart="2805.00" from="-793496709#1" to="-155218571#0" type="truck"/>
    <trip id="188" depart="2820.00" from="534302052#2" to="-793485953" type="truck"/>
    <trip id="189" depart="2835.00" from="-792837612" to="792837621#1" type="truck"/>
    <trip id="190" depart="2850.00" from="788944260#0" to="-792837607#0" type="truck"/>
    <trip id="191" depart="2865.00" from="-792837606#2" to="155214089#3" type="truck"/>
    <trip id="192" depart="2880.00" from="141873691#1" to="-792837603#0" type="truck"/>
    <trip id="193" depart="2895.00" from="-211089617#1" to="155218481#2" type="truck"/>
    <trip id="194" depart="2910.00" from="793501011" to="787459186" type="truck"/>
    <trip id="195" depart="2925.00" from="793489415" to="40438069#12" type="truck"/>
    <trip id="196" depart="2940.00" from="-792597399" to="213095603#3" type="truck"/>
    <trip id="197" depart="2955.00" from="-1091961253#0" to="-792564549" type="truck"/>
    <trip id="198" depart="2970.00" from="155218481#1" to="253462682#10" type="truck"/>
    <trip id="199" depart="2985.00" from="533641889#0" to="155218561#1" type="truck"/>
    <trip id="200" depart="3000.00" from="155218487#1" to="-792503688" type="truck"/>
    <trip id="201" depart="3015.00" from="155218559#1" to="793489405#0" type="truck"/>
    <trip id="202" depart="3030.00" from="792506142#1" to="-254860840" type="truck"/>
    <trip id="203" depart="3045.00" from="-211087300" to="211088404" type="truck"/>
    <trip id="204" depart="3060.00" from="472728061#1" to="-793489392" type="truck"/>
    <trip id="205" depart="3075.00" from="792564552#1" to="792503696#2" type="truck"/>
    <trip id="206" depart="3090.00" from="534501367#0" to="-792503696#0" type="truck"/>
    <trip id="207" depart="3105.00" from="-787487394#0" to="-155218481#7" type="truck"/>
    <trip id="208" depart="3120.00" from="-792505158" to="155218579#0" type="truck"/>
    <trip id="209" depart="3135.00" from="792837623#2" to="-155218573#2" type="truck"/>
    <trip id="210" depart="3150.00" from="155214051#1" to="533411509#1" type="truck"/>
    <trip id="211" depart="3165.00" from="-787473343" to="787927685" type="truck"/>
    <trip id="212" depart="3180.00" from="211087287#4" to="-792505166#1" type="truck"/>
    <trip id="213" depart="3195.00" from="533647589#1" to="-1214482945#0" type="truck"/>
    <trip id="214" depart="3210.00" from="792503696#0" to="792505170#2" type="truck"/>
    <trip id="215" depart="3225.00" from="-211088385#5" to="155218483#3" type="truck"/>
    <trip id="216" depart="3240.00" from="-277445720#1" to="849300015" type="truck"/>
    <trip id="217" depart="3255.00" from="211088385#0" to="-155218527" type="truck"/>
    <trip id="218" depart="3270.00" from="-792505163#1" to="792837622#0" type="truck"/>
    <trip id="219" depart="3285.00" from="155218521" to="792508506" type="truck"/>
    <trip id="220" depart="3300.00" from="534302053#2" to="854454259" type="truck"/>
    <trip id="221" depart="3315.00" from="253463713#0" to="849297240" type="truck"/>
    <trip id="222" depart="3330.00" from="793425812" to="388329102#3" type="truck"/>
    <trip id="223" depart="3345.00" from="788944259#5" to="211087336#0" type="truck"/>
    <trip id="224" depart="3360.00" from="792837602#0" to="213095603#3" type="truck"/>
    <trip id="225" depart="3375.00" from="793489387#1" to="792503695#2" type="truck"/>
    <trip id="226" depart="3390.00" from="155218561#2" to="-792505179#3" type="truck"/>
    <trip id="227" depart="3405.00" from="-792505161#0" to="533591547#1" type="truck"/>
    <trip id="228" depart="3420.00" from="792505160#2" to="211088417#0" type="truck"/>
    <trip id="229" depart="3435.00" from="40438069#7" to="-792506812#1" type="truck"/>
    <trip id="230" depart="3450.00" from="-155218578#3" to="-792564546" type="truck"/>
    <trip id="231" depart="3465.00" from="-792506135" to="-792948492#0" type="truck"/>
    <trip id="232" depart="3480.00" from="211089617#2" to="-213095603#2" type="truck"/>
    <trip id="233" depart="3495.00" from="-792503696#10" to="787511662#1" type="truck"/>
    <trip id="234" depart="3510.00" from="788112301#1" to="-155218551#1" type="truck"/>
    <trip id="235" depart="3525.00" from="141873697#7" to="211220438" type="truck"/>
    <trip id="236" depart="3540.00" from="155214088#0" to="-788940254#3" type="truck"/>
    <trip id="237" depart="3555.00" from="155214122#0" to="793489417#2" type="truck"/>
    <trip id="238" depart="3570.00" from="252505526#2" to="787899937#0" type="truck"/>
    <trip id="239" depart="3585.00" from="792837632#2" to="792505163#1" type="truck"/>
</routes>
